* +++++++++++++++++++++++++++++++++++++++++++++++++++++++++ *
* CDL Netlist:                                              *
*                                                           *
* Cell Name  : mult                                         *
* Netlisted  : Sun Dec  7 18:49:31 2025                     *
* PVS Version: 23.11-s036 Wed Jan 17 18:11:41 PST 2024      *
* +++++++++++++++++++++++++++++++++++++++++++++++++++++++++ *
*.LDD
*.DEVTMPLT 0 MN(g45n1svt) _nmos1v ndiff_conn(D) poly_conn(G) ndiff_conn(S) psubstrate(B)
*.DEVTMPLT 1 MP(g45p1svt) _pmos1v pdiff_conn(D) poly_conn(G) pdiff_conn(S) nwell_conn(B)

* +++++++++++++++++++++++++++++++++++++++++++++++++++++++++ *
* Sub cell: M11_M10_CDNS_765154963930                       *
* +++++++++++++++++++++++++++++++++++++++++++++++++++++++++ *
.subckt M11_M10_CDNS_765154963930 1
** N=1 EP=1 FDC=0
.ends M11_M10_CDNS_765154963930

* +++++++++++++++++++++++++++++++++++++++++++++++++++++++++ *
* Sub cell: M5_M4_CDNS_765154963931                         *
* +++++++++++++++++++++++++++++++++++++++++++++++++++++++++ *
.subckt M5_M4_CDNS_765154963931 1
** N=1 EP=1 FDC=0
.ends M5_M4_CDNS_765154963931

* +++++++++++++++++++++++++++++++++++++++++++++++++++++++++ *
* Sub cell: M6_M5_CDNS_765154963932                         *
* +++++++++++++++++++++++++++++++++++++++++++++++++++++++++ *
.subckt M6_M5_CDNS_765154963932 1
** N=1 EP=1 FDC=0
.ends M6_M5_CDNS_765154963932

* +++++++++++++++++++++++++++++++++++++++++++++++++++++++++ *
* Sub cell: M7_M6_CDNS_765154963933                         *
* +++++++++++++++++++++++++++++++++++++++++++++++++++++++++ *
.subckt M7_M6_CDNS_765154963933 1
** N=1 EP=1 FDC=0
.ends M7_M6_CDNS_765154963933

* +++++++++++++++++++++++++++++++++++++++++++++++++++++++++ *
* Sub cell: M8_M7_CDNS_765154963934                         *
* +++++++++++++++++++++++++++++++++++++++++++++++++++++++++ *
.subckt M8_M7_CDNS_765154963934 1
** N=1 EP=1 FDC=0
.ends M8_M7_CDNS_765154963934

* +++++++++++++++++++++++++++++++++++++++++++++++++++++++++ *
* Sub cell: M10_M9_CDNS_765154963935                        *
* +++++++++++++++++++++++++++++++++++++++++++++++++++++++++ *
.subckt M10_M9_CDNS_765154963935 1
** N=1 EP=1 FDC=0
.ends M10_M9_CDNS_765154963935

* +++++++++++++++++++++++++++++++++++++++++++++++++++++++++ *
* Sub cell: M9_M8_CDNS_765154963936                         *
* +++++++++++++++++++++++++++++++++++++++++++++++++++++++++ *
.subckt M9_M8_CDNS_765154963936 1
** N=1 EP=1 FDC=0
.ends M9_M8_CDNS_765154963936

* +++++++++++++++++++++++++++++++++++++++++++++++++++++++++ *
* Sub cell: M2_M1_CDNS_765154963937                         *
* +++++++++++++++++++++++++++++++++++++++++++++++++++++++++ *
.subckt M2_M1_CDNS_765154963937 1
** N=1 EP=1 FDC=0
.ends M2_M1_CDNS_765154963937

* +++++++++++++++++++++++++++++++++++++++++++++++++++++++++ *
* Sub cell: M3_M2_CDNS_765154963938                         *
* +++++++++++++++++++++++++++++++++++++++++++++++++++++++++ *
.subckt M3_M2_CDNS_765154963938 1
** N=1 EP=1 FDC=0
.ends M3_M2_CDNS_765154963938

* +++++++++++++++++++++++++++++++++++++++++++++++++++++++++ *
* Sub cell: M4_M3_CDNS_765154963939                         *
* +++++++++++++++++++++++++++++++++++++++++++++++++++++++++ *
.subckt M4_M3_CDNS_765154963939 1
** N=1 EP=1 FDC=0
.ends M4_M3_CDNS_765154963939

* +++++++++++++++++++++++++++++++++++++++++++++++++++++++++ *
* Sub cell: M5_M4_CDNS_7651549639310                        *
* +++++++++++++++++++++++++++++++++++++++++++++++++++++++++ *
.subckt M5_M4_CDNS_7651549639310 1
** N=1 EP=1 FDC=0
.ends M5_M4_CDNS_7651549639310

* +++++++++++++++++++++++++++++++++++++++++++++++++++++++++ *
* Sub cell: M3_M2_CDNS_7651549639311                        *
* +++++++++++++++++++++++++++++++++++++++++++++++++++++++++ *
.subckt M3_M2_CDNS_7651549639311 1
** N=1 EP=1 FDC=0
.ends M3_M2_CDNS_7651549639311

* +++++++++++++++++++++++++++++++++++++++++++++++++++++++++ *
* Sub cell: M4_M3_CDNS_7651549639312                        *
* +++++++++++++++++++++++++++++++++++++++++++++++++++++++++ *
.subckt M4_M3_CDNS_7651549639312 1
** N=1 EP=1 FDC=0
.ends M4_M3_CDNS_7651549639312

* +++++++++++++++++++++++++++++++++++++++++++++++++++++++++ *
* Sub cell: M2_M1_CDNS_7651549639313                        *
* +++++++++++++++++++++++++++++++++++++++++++++++++++++++++ *
.subckt M2_M1_CDNS_7651549639313 1
** N=1 EP=1 FDC=0
.ends M2_M1_CDNS_7651549639313

* +++++++++++++++++++++++++++++++++++++++++++++++++++++++++ *
* Sub cell: M3_M2_CDNS_7651549639314                        *
* +++++++++++++++++++++++++++++++++++++++++++++++++++++++++ *
.subckt M3_M2_CDNS_7651549639314 1
** N=1 EP=1 FDC=0
.ends M3_M2_CDNS_7651549639314

* +++++++++++++++++++++++++++++++++++++++++++++++++++++++++ *
* Sub cell: M2_M1_CDNS_7651549639315                        *
* +++++++++++++++++++++++++++++++++++++++++++++++++++++++++ *
.subckt M2_M1_CDNS_7651549639315 1
** N=1 EP=1 FDC=0
.ends M2_M1_CDNS_7651549639315

* +++++++++++++++++++++++++++++++++++++++++++++++++++++++++ *
* Sub cell: M4_M3_CDNS_7651549639317                        *
* +++++++++++++++++++++++++++++++++++++++++++++++++++++++++ *
.subckt M4_M3_CDNS_7651549639317 1
** N=1 EP=1 FDC=0
.ends M4_M3_CDNS_7651549639317

* +++++++++++++++++++++++++++++++++++++++++++++++++++++++++ *
* Sub cell: M4_M3_CDNS_7651549639318                        *
* +++++++++++++++++++++++++++++++++++++++++++++++++++++++++ *
.subckt M4_M3_CDNS_7651549639318 1
** N=1 EP=1 FDC=0
.ends M4_M3_CDNS_7651549639318

* +++++++++++++++++++++++++++++++++++++++++++++++++++++++++ *
* Sub cell: M4_M3_CDNS_7651549639319                        *
* +++++++++++++++++++++++++++++++++++++++++++++++++++++++++ *
.subckt M4_M3_CDNS_7651549639319 1
** N=1 EP=1 FDC=0
.ends M4_M3_CDNS_7651549639319

* +++++++++++++++++++++++++++++++++++++++++++++++++++++++++ *
* Sub cell: M1_NWELL_CDNS_7651549639320                     *
* +++++++++++++++++++++++++++++++++++++++++++++++++++++++++ *
.subckt M1_NWELL_CDNS_7651549639320 1
** N=1 EP=1 FDC=0
.ends M1_NWELL_CDNS_7651549639320

* +++++++++++++++++++++++++++++++++++++++++++++++++++++++++ *
* Sub cell: M2_M1_CDNS_7651549639321                        *
* +++++++++++++++++++++++++++++++++++++++++++++++++++++++++ *
.subckt M2_M1_CDNS_7651549639321 1
** N=1 EP=1 FDC=0
.ends M2_M1_CDNS_7651549639321

* +++++++++++++++++++++++++++++++++++++++++++++++++++++++++ *
* Sub cell: M1_PSUB_CDNS_7651549639322                      *
* +++++++++++++++++++++++++++++++++++++++++++++++++++++++++ *
.subckt M1_PSUB_CDNS_7651549639322 1
** N=1 EP=1 FDC=0
.ends M1_PSUB_CDNS_7651549639322

* +++++++++++++++++++++++++++++++++++++++++++++++++++++++++ *
* Sub cell: M1_PO_CDNS_7651549639323                        *
* +++++++++++++++++++++++++++++++++++++++++++++++++++++++++ *
.subckt M1_PO_CDNS_7651549639323 1
** N=1 EP=1 FDC=0
.ends M1_PO_CDNS_7651549639323

* +++++++++++++++++++++++++++++++++++++++++++++++++++++++++ *
* Sub cell: nmos1v_CDNS_765154963930                        *
* +++++++++++++++++++++++++++++++++++++++++++++++++++++++++ *
.subckt nmos1v_CDNS_765154963930 1 2 3 4 5
** N=5 EP=5 FDC=2
M0 3 4 1 5 g45n1svt L=4.5e-08 W=7.2e-07 AD=1.152e-13 AS=1.008e-13 PD=1.76e-06 PS=1.72e-06 fw=7.2e-07 sa=1.4e-07 sb=3.45e-07 sca=3.60561 scb=0.000231313 scc=1.03051e-07 $X=0 $Y=0 $dt=0
M1 2 4 3 5 g45n1svt L=4.5e-08 W=7.2e-07 AD=1.008e-13 AS=1.152e-13 PD=1.72e-06 PS=1.76e-06 fw=7.2e-07 sa=3.45e-07 sb=1.4e-07 sca=3.60561 scb=0.000231313 scc=1.03051e-07 $X=410 $Y=0 $dt=0
.ends nmos1v_CDNS_765154963930

* +++++++++++++++++++++++++++++++++++++++++++++++++++++++++ *
* Sub cell: pmos1v_CDNS_765154963931                        *
* +++++++++++++++++++++++++++++++++++++++++++++++++++++++++ *
.subckt pmos1v_CDNS_765154963931 1 2 3 4 5 6
*.DEVICECLIMB
** N=6 EP=6 FDC=0
.ends pmos1v_CDNS_765154963931

* +++++++++++++++++++++++++++++++++++++++++++++++++++++++++ *
* Sub cell: nmos1v_CDNS_765154963932                        *
* +++++++++++++++++++++++++++++++++++++++++++++++++++++++++ *
.subckt nmos1v_CDNS_765154963932 1 2 3 4 5
** N=5 EP=5 FDC=2
M0 2 3 1 5 g45n1svt L=4.5e-08 W=3.6e-07 AD=5.76e-14 AS=5.04e-14 PD=1.04e-06 PS=1e-06 fw=3.6e-07 sa=1.4e-07 sb=3.45e-07 sca=4.15332 scb=0.000375834 scc=2.03107e-07 $X=0 $Y=0 $dt=0
M1 4 3 2 5 g45n1svt L=4.5e-08 W=3.6e-07 AD=5.04e-14 AS=5.76e-14 PD=1e-06 PS=1.04e-06 fw=3.6e-07 sa=3.45e-07 sb=1.4e-07 sca=4.15332 scb=0.000375834 scc=2.03107e-07 $X=410 $Y=0 $dt=0
.ends nmos1v_CDNS_765154963932

* +++++++++++++++++++++++++++++++++++++++++++++++++++++++++ *
* Sub cell: inv                                             *
* +++++++++++++++++++++++++++++++++++++++++++++++++++++++++ *
.subckt inv 1 2 3 4
*.DEVICECLIMB
** N=4 EP=4 FDC=2
X0 2 M1_NWELL_CDNS_7651549639320 $T=190 2570 0 0 $X=-230 $Y=2270
X1 4 M1_PSUB_CDNS_7651549639322 $T=190 -2020 0 0 $X=-190 $Y=-2160
X2 1 M1_PO_CDNS_7651549639323 $T=-160 30 0 0 $X=-260 $Y=-330
X3 2 3 1 2 4 2 pmos1v_CDNS_765154963931 $T=-60 630 0 0 $X=-480 $Y=430
X4 4 3 1 4 4 nmos1v_CDNS_765154963932 $T=-60 -1520 0 0 $X=-480 $Y=-1720
.ends inv

* +++++++++++++++++++++++++++++++++++++++++++++++++++++++++ *
* Sub cell: and2                                            *
* +++++++++++++++++++++++++++++++++++++++++++++++++++++++++ *
.subckt and2 1 2 3 4 5 6 7
*.DEVICECLIMB
** N=7 EP=7 FDC=9
X0 2 M1_NWELL_CDNS_7651549639320 $T=-1350 2870 0 0 $X=-1770 $Y=2570
X1 6 M2_M1_CDNS_7651549639321 $T=-2410 -1220 0 0 $X=-2490 $Y=-1470
X2 7 M2_M1_CDNS_7651549639321 $T=-2000 1650 0 0 $X=-2080 $Y=1400
X3 6 M2_M1_CDNS_7651549639321 $T=-1590 -1220 0 0 $X=-1670 $Y=-1470
X4 6 M2_M1_CDNS_7651549639321 $T=-1110 -1220 0 0 $X=-1190 $Y=-1470
X5 7 M2_M1_CDNS_7651549639321 $T=-700 1650 0 0 $X=-780 $Y=1400
X6 6 M2_M1_CDNS_7651549639321 $T=-290 -1220 0 0 $X=-370 $Y=-1470
X7 4 M1_PSUB_CDNS_7651549639322 $T=-700 -2440 0 0 $X=-1080 $Y=-2580
X8 1 M1_PO_CDNS_7651549639323 $T=-2350 360 0 0 $X=-2450 $Y=0
X9 3 M1_PO_CDNS_7651549639323 $T=-1050 60 0 0 $X=-1150 $Y=-300
X10 6 6 7 1 4 nmos1v_CDNS_765154963930 $T=-2250 -1940 0 0 $X=-2670 $Y=-2140
X11 6 6 4 3 4 nmos1v_CDNS_765154963930 $T=-950 -1940 0 0 $X=-1370 $Y=-2140
X12 2 7 1 2 4 2 pmos1v_CDNS_765154963931 $T=-2250 930 0 0 $X=-2670 $Y=730
X13 2 7 3 2 4 2 pmos1v_CDNS_765154963931 $T=-950 930 0 0 $X=-1370 $Y=730
X14 7 2 5 4 inv $T=410 300 0 0 $X=-70 $Y=-1860
M0 2 3 7 2 g45p1svt L=4.5e-08 W=7.2e-07 AD=1.008e-13 AS=1.152e-13 PD=1.72e-06 PS=1.76e-06 fw=7.2e-07 sa=3.45e-07 sb=1.4e-07 sca=25.8711 scb=0.0135953 scc=0.00231129 $X=-540 $Y=930 $dt=1
M1 5 7 2 2 g45p1svt L=4.5e-08 W=7.2e-07 AD=1.152e-13 AS=1.008e-13 PD=1.76e-06 PS=1.72e-06 fw=7.2e-07 sa=1.4e-07 sb=3.45e-07 sca=30.0436 scb=0.0194268 scc=0.00239616 $X=350 $Y=930 $dt=1
M2 2 7 5 2 g45p1svt L=4.5e-08 W=7.2e-07 AD=1.008e-13 AS=1.152e-13 PD=1.72e-06 PS=1.76e-06 fw=7.2e-07 sa=3.45e-07 sb=1.4e-07 sca=44.9648 scb=0.0375178 scc=0.00495812 $X=760 $Y=930 $dt=1
.ends and2

* +++++++++++++++++++++++++++++++++++++++++++++++++++++++++ *
* Sub cell: M3_M2_CDNS_7651549639324                        *
* +++++++++++++++++++++++++++++++++++++++++++++++++++++++++ *
.subckt M3_M2_CDNS_7651549639324 1
** N=1 EP=1 FDC=0
.ends M3_M2_CDNS_7651549639324

* +++++++++++++++++++++++++++++++++++++++++++++++++++++++++ *
* Sub cell: M2_M1_CDNS_7651549639325                        *
* +++++++++++++++++++++++++++++++++++++++++++++++++++++++++ *
.subckt M2_M1_CDNS_7651549639325 1
** N=1 EP=1 FDC=0
.ends M2_M1_CDNS_7651549639325

* +++++++++++++++++++++++++++++++++++++++++++++++++++++++++ *
* Sub cell: M2_M1_CDNS_7651549639326                        *
* +++++++++++++++++++++++++++++++++++++++++++++++++++++++++ *
.subckt M2_M1_CDNS_7651549639326 1
** N=1 EP=1 FDC=0
.ends M2_M1_CDNS_7651549639326

* +++++++++++++++++++++++++++++++++++++++++++++++++++++++++ *
* Sub cell: M1_PO_CDNS_7651549639329                        *
* +++++++++++++++++++++++++++++++++++++++++++++++++++++++++ *
.subckt M1_PO_CDNS_7651549639329 1
** N=1 EP=1 FDC=0
.ends M1_PO_CDNS_7651549639329

* +++++++++++++++++++++++++++++++++++++++++++++++++++++++++ *
* Sub cell: xor                                             *
* +++++++++++++++++++++++++++++++++++++++++++++++++++++++++ *
.subckt xor 1 2 3 4 5 6
*.DEVICECLIMB
** N=6 EP=6 FDC=9
X0 5 M2_M1_CDNS_7651549639321 $T=-660 -1560 0 0 $X=-740 $Y=-1810
X1 5 M2_M1_CDNS_7651549639321 $T=-660 950 0 0 $X=-740 $Y=700
X2 5 M2_M1_CDNS_7651549639321 $T=160 -1560 0 0 $X=80 $Y=-1810
X3 5 M2_M1_CDNS_7651549639321 $T=160 950 0 0 $X=80 $Y=700
X4 5 M2_M1_CDNS_7651549639321 $T=1050 -1560 0 0 $X=970 $Y=-1810
X5 5 M2_M1_CDNS_7651549639321 $T=1050 950 0 0 $X=970 $Y=700
X6 5 6 1 5 3 2 pmos1v_CDNS_765154963931 $T=-500 230 0 0 $X=-920 $Y=30
X7 1 5 6 1 3 2 pmos1v_CDNS_765154963931 $T=800 230 0 0 $X=380 $Y=30
X8 5 6 4 5 3 nmos1v_CDNS_765154963932 $T=-500 -1920 0 0 $X=-920 $Y=-2120
X9 4 5 6 4 3 nmos1v_CDNS_765154963932 $T=800 -1920 0 0 $X=380 $Y=-2120
X10 1 2 4 3 inv $T=-1740 -400 0 0 $X=-2220 $Y=-2560
X11 6 M2_M1_CDNS_7651549639325 $T=-30 -450 0 0 $X=-160 $Y=-580
X12 5 M2_M1_CDNS_7651549639325 $T=1330 -190 0 0 $X=1200 $Y=-320
X13 6 M2_M1_CDNS_7651549639326 $T=-300 -1260 0 0 $X=-430 $Y=-1390
X14 6 M2_M1_CDNS_7651549639326 $T=-250 380 0 0 $X=-380 $Y=250
X15 1 M1_PO_CDNS_7651549639329 $T=-450 10 0 0 $X=-550 $Y=-110
X16 1 M1_PO_CDNS_7651549639329 $T=-450 1890 0 0 $X=-550 $Y=1770
X17 4 M1_PO_CDNS_7651549639329 $T=-40 -2140 0 0 $X=-140 $Y=-2260
X18 1 M1_PO_CDNS_7651549639329 $T=-40 1890 0 0 $X=-140 $Y=1770
X19 6 M1_PO_CDNS_7651549639329 $T=850 -980 0 0 $X=750 $Y=-1100
M0 5 1 6 2 g45p1svt L=4.5e-08 W=7.2e-07 AD=1.008e-13 AS=1.152e-13 PD=1.72e-06 PS=1.76e-06 fw=7.2e-07 sa=3.45e-07 sb=1.4e-07 sca=25.5135 scb=0.01349 scc=0.00231127 $X=-90 $Y=230 $dt=1
M1 5 6 1 2 g45p1svt L=4.5e-08 W=7.2e-07 AD=1.152e-13 AS=1.008e-13 PD=1.76e-06 PS=1.72e-06 fw=7.2e-07 sa=1.4e-07 sb=3.45e-07 sca=25.5135 scb=0.01349 scc=0.00231127 $X=800 $Y=230 $dt=1
M2 1 6 5 2 g45p1svt L=4.5e-08 W=7.2e-07 AD=1.008e-13 AS=1.152e-13 PD=1.72e-06 PS=1.76e-06 fw=7.2e-07 sa=3.45e-07 sb=1.4e-07 sca=25.5135 scb=0.01349 scc=0.00231127 $X=1210 $Y=230 $dt=1
.ends xor

* +++++++++++++++++++++++++++++++++++++++++++++++++++++++++ *
* Sub cell: nmos1v_CDNS_765154963933                        *
* +++++++++++++++++++++++++++++++++++++++++++++++++++++++++ *
.subckt nmos1v_CDNS_765154963933 1 2 3 4 5 6 7 8 9
** N=9 EP=9 FDC=4
M0 2 3 1 4 g45n1svt L=4.5e-08 W=3.6e-07 AD=5.76e-14 AS=5.04e-14 PD=1.04e-06 PS=1e-06 fw=3.6e-07 sa=1.4e-07 sb=7.55e-07 sca=4.15332 scb=0.000375834 scc=2.03107e-07 $X=0 $Y=0 $dt=0
M1 4 6 2 4 g45n1svt L=4.5e-08 W=3.6e-07 AD=5.76e-14 AS=5.76e-14 PD=1.04e-06 PS=1.04e-06 fw=3.6e-07 sa=3.45e-07 sb=5.5e-07 sca=4.15332 scb=0.000375834 scc=2.03107e-07 $X=410 $Y=0 $dt=0
M2 5 7 4 4 g45n1svt L=4.5e-08 W=3.6e-07 AD=5.76e-14 AS=5.76e-14 PD=1.04e-06 PS=1.04e-06 fw=3.6e-07 sa=5.5e-07 sb=3.45e-07 sca=4.15332 scb=0.000375834 scc=2.03107e-07 $X=820 $Y=0 $dt=0
M3 8 9 5 4 g45n1svt L=4.5e-08 W=3.6e-07 AD=5.04e-14 AS=5.76e-14 PD=1e-06 PS=1.04e-06 fw=3.6e-07 sa=7.55e-07 sb=1.4e-07 sca=4.15332 scb=0.000375834 scc=2.03107e-07 $X=1230 $Y=0 $dt=0
.ends nmos1v_CDNS_765154963933

* +++++++++++++++++++++++++++++++++++++++++++++++++++++++++ *
* Sub cell: pmos1v_CDNS_765154963934                        *
* +++++++++++++++++++++++++++++++++++++++++++++++++++++++++ *
.subckt pmos1v_CDNS_765154963934 1 2 3 4 5 6 7 8 9 10
+ 11
** N=11 EP=11 FDC=4
M0 2 4 1 11 g45p1svt L=4.5e-08 W=7.2e-07 AD=1.152e-13 AS=1.008e-13 PD=1.76e-06 PS=1.72e-06 fw=7.2e-07 sa=1.4e-07 sb=7.55e-07 sca=25.5135 scb=0.01349 scc=0.00231127 $X=0 $Y=0 $dt=1
M1 3 5 2 11 g45p1svt L=4.5e-08 W=7.2e-07 AD=1.152e-13 AS=1.152e-13 PD=1.76e-06 PS=1.76e-06 fw=7.2e-07 sa=3.45e-07 sb=5.5e-07 sca=25.5135 scb=0.01349 scc=0.00231127 $X=410 $Y=0 $dt=1
M2 6 8 3 11 g45p1svt L=4.5e-08 W=7.2e-07 AD=1.152e-13 AS=1.152e-13 PD=1.76e-06 PS=1.76e-06 fw=7.2e-07 sa=5.5e-07 sb=3.45e-07 sca=25.5135 scb=0.01349 scc=0.00231127 $X=820 $Y=0 $dt=1
M3 7 9 6 11 g45p1svt L=4.5e-08 W=7.2e-07 AD=1.008e-13 AS=1.152e-13 PD=1.72e-06 PS=1.76e-06 fw=7.2e-07 sa=7.55e-07 sb=1.4e-07 sca=25.8711 scb=0.0135953 scc=0.00231129 $X=1230 $Y=0 $dt=1
.ends pmos1v_CDNS_765154963934

* +++++++++++++++++++++++++++++++++++++++++++++++++++++++++ *
* Sub cell: fa_co_network                                   *
* +++++++++++++++++++++++++++++++++++++++++++++++++++++++++ *
.subckt fa_co_network 1 2 3 4 5 6 7 8 9 10
+ 11
** N=11 EP=11 FDC=8
X0 1 M2_M1_CDNS_7651549639315 $T=-830 -970 0 0 $X=-910 $Y=-1100
X1 2 M2_M1_CDNS_7651549639315 $T=-220 -60 0 0 $X=-300 $Y=-190
X2 2 M2_M1_CDNS_7651549639315 $T=200 730 0 0 $X=120 $Y=600
X3 1 M2_M1_CDNS_7651549639315 $T=810 -970 0 0 $X=730 $Y=-1100
X4 4 M1_NWELL_CDNS_7651549639320 $T=-10 2990 0 0 $X=-430 $Y=2690
X5 5 M1_PSUB_CDNS_7651549639322 $T=0 -1600 0 0 $X=-380 $Y=-1740
X6 3 M1_PO_CDNS_7651549639323 $T=-590 550 0 0 $X=-690 $Y=190
X7 7 M1_PO_CDNS_7651549639323 $T=570 550 0 0 $X=470 $Y=190
X8 2 M1_PO_CDNS_7651549639329 $T=-220 -60 0 0 $X=-320 $Y=-180
X9 6 M1_PO_CDNS_7651549639329 $T=-210 730 0 0 $X=-310 $Y=610
X10 6 M1_PO_CDNS_7651549639329 $T=190 -60 0 0 $X=90 $Y=-180
X11 2 M1_PO_CDNS_7651549639329 $T=200 730 0 0 $X=100 $Y=610
X12 1 8 3 5 9 2 6 1 7 nmos1v_CDNS_765154963933 $T=-670 -1100 0 0 $X=-1090 $Y=-1300
X13 1 10 4 3 6 11 1 2 7 5
+ 4 pmos1v_CDNS_765154963934 $T=-670 1050 0 0 $X=-1090 $Y=850
.ends fa_co_network

* +++++++++++++++++++++++++++++++++++++++++++++++++++++++++ *
* Sub cell: full_adder                                      *
* +++++++++++++++++++++++++++++++++++++++++++++++++++++++++ *
.subckt full_adder 1 2 3 4 5 6 7 8 9 10
+ 11
** N=15 EP=11 FDC=36
X0 1 M3_M2_CDNS_7651549639314 $T=2270 3860 0 0 $X=2190 $Y=3730
X1 2 M3_M2_CDNS_7651549639314 $T=5790 3080 0 0 $X=5710 $Y=2950
X2 6 M3_M2_CDNS_7651549639314 $T=9120 4760 0 0 $X=9040 $Y=4630
X3 2 M3_M2_CDNS_7651549639314 $T=11410 2940 0 0 $X=11330 $Y=2810
X4 7 M3_M2_CDNS_7651549639314 $T=12920 3510 0 0 $X=12840 $Y=3380
X5 2 M2_M1_CDNS_7651549639315 $T=5250 3070 0 0 $X=5170 $Y=2940
X6 8 M2_M1_CDNS_7651549639315 $T=9530 2380 0 0 $X=9450 $Y=2250
X7 9 M2_M1_CDNS_7651549639315 $T=9530 5090 0 0 $X=9450 $Y=4960
X8 4 M2_M1_CDNS_7651549639315 $T=10820 5970 0 0 $X=10740 $Y=5840
X9 8 M2_M1_CDNS_7651549639315 $T=11040 2940 0 0 $X=10960 $Y=2810
X10 2 M2_M1_CDNS_7651549639315 $T=11390 3320 0 0 $X=11310 $Y=3190
X11 7 M2_M1_CDNS_7651549639315 $T=12920 3510 0 0 $X=12840 $Y=3380
X12 2 M4_M3_CDNS_7651549639319 $T=6980 3080 0 0 $X=6900 $Y=2950
X13 2 M4_M3_CDNS_7651549639319 $T=10140 2970 0 0 $X=10060 $Y=2840
X14 10 4 7 5 inv $T=12350 3410 0 0 $X=11870 $Y=1250
X15 3 M3_M2_CDNS_7651549639324 $T=7300 3360 0 0 $X=7170 $Y=3230
X16 3 M3_M2_CDNS_7651549639324 $T=10110 3640 0 0 $X=9980 $Y=3510
X17 4 M2_M1_CDNS_7651549639325 $T=6470 5920 0 0 $X=6340 $Y=5790
X18 3 M2_M1_CDNS_7651549639325 $T=7620 3360 0 0 $X=7490 $Y=3230
X19 3 M2_M1_CDNS_7651549639325 $T=10320 3640 0 0 $X=10190 $Y=3510
X20 4 M2_M1_CDNS_7651549639326 $T=3420 5920 0 0 $X=3290 $Y=5790
X21 1 4 5 11 9 2 xor $T=4170 3810 0 0 $X=1950 $Y=1250
X22 9 4 5 8 6 3 xor $T=8070 3810 0 0 $X=5850 $Y=1250
X23 10 9 3 4 5 8 2 12 13 14
+ 15 fa_co_network $T=10840 2990 0 0 $X=9750 $Y=1250
M0 11 1 4 4 g45p1svt L=4.5e-08 W=7.2e-07 AD=1.152e-13 AS=1.008e-13 PD=1.76e-06 PS=1.72e-06 fw=7.2e-07 sa=1.4e-07 sb=3.45e-07 sca=44.9648 scb=0.0375178 scc=0.00495812 $X=2370 $Y=4040 $dt=1
M1 4 1 11 4 g45p1svt L=4.5e-08 W=7.2e-07 AD=1.008e-13 AS=1.152e-13 PD=1.72e-06 PS=1.76e-06 fw=7.2e-07 sa=3.45e-07 sb=1.4e-07 sca=30.0436 scb=0.0194268 scc=0.00239616 $X=2780 $Y=4040 $dt=1
M2 2 1 9 4 g45p1svt L=4.5e-08 W=7.2e-07 AD=1.152e-13 AS=1.008e-13 PD=1.76e-06 PS=1.72e-06 fw=7.2e-07 sa=1.4e-07 sb=3.45e-07 sca=25.8711 scb=0.0135953 scc=0.00231129 $X=3670 $Y=4040 $dt=1
M3 8 9 4 4 g45p1svt L=4.5e-08 W=7.2e-07 AD=1.152e-13 AS=1.008e-13 PD=1.76e-06 PS=1.72e-06 fw=7.2e-07 sa=1.4e-07 sb=3.45e-07 sca=25.5135 scb=0.01349 scc=0.00231127 $X=6270 $Y=4040 $dt=1
M4 4 9 8 4 g45p1svt L=4.5e-08 W=7.2e-07 AD=1.008e-13 AS=1.152e-13 PD=1.72e-06 PS=1.76e-06 fw=7.2e-07 sa=3.45e-07 sb=1.4e-07 sca=25.5135 scb=0.01349 scc=0.00231127 $X=6680 $Y=4040 $dt=1
M5 3 9 6 4 g45p1svt L=4.5e-08 W=7.2e-07 AD=1.152e-13 AS=1.008e-13 PD=1.76e-06 PS=1.72e-06 fw=7.2e-07 sa=1.4e-07 sb=3.45e-07 sca=25.5135 scb=0.01349 scc=0.00231127 $X=7570 $Y=4040 $dt=1
M6 7 10 4 4 g45p1svt L=4.5e-08 W=7.2e-07 AD=1.152e-13 AS=1.008e-13 PD=1.76e-06 PS=1.72e-06 fw=7.2e-07 sa=1.4e-07 sb=3.45e-07 sca=30.0436 scb=0.0194268 scc=0.00239616 $X=12290 $Y=4040 $dt=1
M7 4 10 7 4 g45p1svt L=4.5e-08 W=7.2e-07 AD=1.008e-13 AS=1.152e-13 PD=1.72e-06 PS=1.76e-06 fw=7.2e-07 sa=3.45e-07 sb=1.4e-07 sca=44.9648 scb=0.0375178 scc=0.00495812 $X=12700 $Y=4040 $dt=1
.ends full_adder

* +++++++++++++++++++++++++++++++++++++++++++++++++++++++++ *
* Sub cell: half_adder                                      *
* +++++++++++++++++++++++++++++++++++++++++++++++++++++++++ *
.subckt half_adder 1 2 3 4 5 6 7
** N=9 EP=7 FDC=24
X0 1 M3_M2_CDNS_7651549639314 $T=2760 3570 0 0 $X=2680 $Y=3440
X1 2 M3_M2_CDNS_7651549639314 $T=4630 3110 0 0 $X=4550 $Y=2980
X2 6 M3_M2_CDNS_7651549639314 $T=9970 3310 0 0 $X=9890 $Y=3180
X3 5 M3_M2_CDNS_7651549639314 $T=10180 2730 0 0 $X=10100 $Y=2600
X4 6 M2_M1_CDNS_7651549639315 $T=9970 3310 0 0 $X=9890 $Y=3180
X5 5 M2_M1_CDNS_7651549639315 $T=10180 2730 0 0 $X=10100 $Y=2600
X6 2 4 1 3 6 9 8 and2 $T=9010 2860 0 0 $X=6340 $Y=280
X7 1 M2_M1_CDNS_7651549639325 $T=2760 2580 0 0 $X=2630 $Y=2450
X8 1 M2_M1_CDNS_7651549639325 $T=7960 2810 0 0 $X=7830 $Y=2680
X9 5 M2_M1_CDNS_7651549639326 $T=6360 3430 0 0 $X=6230 $Y=3300
X10 1 4 3 7 5 2 xor $T=4660 3560 0 0 $X=2440 $Y=1000
M0 7 1 4 4 g45p1svt L=4.5e-08 W=7.2e-07 AD=1.152e-13 AS=1.008e-13 PD=1.76e-06 PS=1.72e-06 fw=7.2e-07 sa=1.4e-07 sb=3.45e-07 sca=44.9648 scb=0.0375178 scc=0.00495812 $X=2860 $Y=3790 $dt=1
M1 4 1 7 4 g45p1svt L=4.5e-08 W=7.2e-07 AD=1.008e-13 AS=1.152e-13 PD=1.72e-06 PS=1.76e-06 fw=7.2e-07 sa=3.45e-07 sb=1.4e-07 sca=30.0436 scb=0.0194268 scc=0.00239616 $X=3270 $Y=3790 $dt=1
M2 2 1 5 4 g45p1svt L=4.5e-08 W=7.2e-07 AD=1.152e-13 AS=1.008e-13 PD=1.76e-06 PS=1.72e-06 fw=7.2e-07 sa=1.4e-07 sb=3.45e-07 sca=25.8711 scb=0.0135953 scc=0.00231129 $X=4160 $Y=3790 $dt=1
M3 8 2 4 4 g45p1svt L=4.5e-08 W=7.2e-07 AD=1.152e-13 AS=1.008e-13 PD=1.76e-06 PS=1.72e-06 fw=7.2e-07 sa=1.4e-07 sb=3.45e-07 sca=25.5135 scb=0.01349 scc=0.00231127 $X=6760 $Y=3790 $dt=1
M4 4 2 8 4 g45p1svt L=4.5e-08 W=7.2e-07 AD=1.008e-13 AS=1.152e-13 PD=1.72e-06 PS=1.76e-06 fw=7.2e-07 sa=3.45e-07 sb=1.4e-07 sca=25.5135 scb=0.01349 scc=0.00231127 $X=7170 $Y=3790 $dt=1
M5 8 1 4 4 g45p1svt L=4.5e-08 W=7.2e-07 AD=1.152e-13 AS=1.008e-13 PD=1.76e-06 PS=1.72e-06 fw=7.2e-07 sa=1.4e-07 sb=3.45e-07 sca=25.5135 scb=0.01349 scc=0.00231127 $X=8060 $Y=3790 $dt=1
.ends half_adder

* +++++++++++++++++++++++++++++++++++++++++++++++++++++++++ *
* Sub cell: mult                                            *
* +++++++++++++++++++++++++++++++++++++++++++++++++++++++++ *
.subckt mult 8 6 5 4 9 10 11 12 39 7
+ 46 51 47 48 49 50 1 2
** N=143 EP=18 FDC=576
X0 1 M11_M10_CDNS_765154963930 $T=-4370 38930 0 0 $X=-5330 $Y=38650
X1 1 M11_M10_CDNS_765154963930 $T=-4370 45380 0 0 $X=-5330 $Y=45100
X2 1 M11_M10_CDNS_765154963930 $T=-4370 60080 0 0 $X=-5330 $Y=59800
X3 1 M11_M10_CDNS_765154963930 $T=-3860 70340 0 0 $X=-4820 $Y=70060
X4 1 M11_M10_CDNS_765154963930 $T=6020 35670 0 0 $X=5060 $Y=35390
X5 1 M11_M10_CDNS_765154963930 $T=6020 44210 0 0 $X=5060 $Y=43930
X6 1 M11_M10_CDNS_765154963930 $T=6020 52420 0 0 $X=5060 $Y=52140
X7 1 M11_M10_CDNS_765154963930 $T=6020 62650 0 0 $X=5060 $Y=62370
X8 2 M11_M10_CDNS_765154963930 $T=26490 4150 0 0 $X=25530 $Y=3870
X9 1 M11_M10_CDNS_765154963930 $T=28170 26920 0 0 $X=27210 $Y=26640
X10 1 M11_M10_CDNS_765154963930 $T=28170 35440 0 0 $X=27210 $Y=35160
X11 1 M11_M10_CDNS_765154963930 $T=28170 44210 0 0 $X=27210 $Y=43930
X12 1 M11_M10_CDNS_765154963930 $T=28170 53250 0 0 $X=27210 $Y=52970
X13 1 M11_M10_CDNS_765154963930 $T=28170 72500 0 0 $X=27210 $Y=72220
X14 1 M11_M10_CDNS_765154963930 $T=53300 19220 0 0 $X=52340 $Y=18940
X15 1 M11_M10_CDNS_765154963930 $T=53300 26650 0 0 $X=52340 $Y=26370
X16 1 M11_M10_CDNS_765154963930 $T=53300 35880 0 0 $X=52340 $Y=35600
X17 1 M11_M10_CDNS_765154963930 $T=55090 43020 0 0 $X=54130 $Y=42740
X18 3 M11_M10_CDNS_765154963930 $T=77820 -5300 0 0 $X=76860 $Y=-5580
X19 2 M5_M4_CDNS_765154963931 $T=-6030 34400 0 0 $X=-6390 $Y=34270
X20 2 M5_M4_CDNS_765154963931 $T=-6030 43760 0 0 $X=-6390 $Y=43630
X21 2 M5_M4_CDNS_765154963931 $T=-6030 55320 0 0 $X=-6390 $Y=55190
X22 2 M5_M4_CDNS_765154963931 $T=-6030 65180 0 0 $X=-6390 $Y=65050
X23 1 M5_M4_CDNS_765154963931 $T=-4370 38930 0 0 $X=-4730 $Y=38800
X24 1 M5_M4_CDNS_765154963931 $T=-4370 45380 0 0 $X=-4730 $Y=45250
X25 1 M5_M4_CDNS_765154963931 $T=-4370 60080 0 0 $X=-4730 $Y=59950
X26 1 M5_M4_CDNS_765154963931 $T=-3860 70340 0 0 $X=-4220 $Y=70210
X27 2 M5_M4_CDNS_765154963931 $T=1340 28530 0 0 $X=980 $Y=28400
X28 2 M5_M4_CDNS_765154963931 $T=1340 38870 0 0 $X=980 $Y=38740
X29 2 M5_M4_CDNS_765154963931 $T=2350 48710 0 0 $X=1990 $Y=48580
X30 2 M5_M4_CDNS_765154963931 $T=2350 58460 0 0 $X=1990 $Y=58330
X31 1 M5_M4_CDNS_765154963931 $T=6020 35670 0 0 $X=5660 $Y=35540
X32 1 M5_M4_CDNS_765154963931 $T=6020 44210 0 0 $X=5660 $Y=44080
X33 1 M5_M4_CDNS_765154963931 $T=6020 52420 0 0 $X=5660 $Y=52290
X34 1 M5_M4_CDNS_765154963931 $T=6020 62650 0 0 $X=5660 $Y=62520
X35 2 M5_M4_CDNS_765154963931 $T=7810 29790 0 0 $X=7450 $Y=29660
X36 2 M5_M4_CDNS_765154963931 $T=7810 38630 0 0 $X=7450 $Y=38500
X37 2 M5_M4_CDNS_765154963931 $T=7810 45970 0 0 $X=7450 $Y=45840
X38 2 M5_M4_CDNS_765154963931 $T=7810 54500 0 0 $X=7450 $Y=54370
X39 2 M5_M4_CDNS_765154963931 $T=23540 29510 0 0 $X=23180 $Y=29380
X40 2 M5_M4_CDNS_765154963931 $T=23540 36860 0 0 $X=23180 $Y=36730
X41 2 M5_M4_CDNS_765154963931 $T=24360 21640 0 0 $X=24000 $Y=21510
X42 2 M5_M4_CDNS_765154963931 $T=26800 45560 0 0 $X=26440 $Y=45430
X43 1 M5_M4_CDNS_765154963931 $T=28170 26920 0 0 $X=27810 $Y=26790
X44 1 M5_M4_CDNS_765154963931 $T=28170 35440 0 0 $X=27810 $Y=35310
X45 1 M5_M4_CDNS_765154963931 $T=28170 44210 0 0 $X=27810 $Y=44080
X46 1 M5_M4_CDNS_765154963931 $T=28170 53250 0 0 $X=27810 $Y=53120
X47 1 M5_M4_CDNS_765154963931 $T=28170 72500 0 0 $X=27810 $Y=72370
X48 2 M5_M4_CDNS_765154963931 $T=30470 38630 0 0 $X=30110 $Y=38500
X49 2 M5_M4_CDNS_765154963931 $T=33760 21470 0 0 $X=33400 $Y=21340
X50 2 M5_M4_CDNS_765154963931 $T=33760 29680 0 0 $X=33400 $Y=29550
X51 2 M5_M4_CDNS_765154963931 $T=34980 45870 0 0 $X=34620 $Y=45740
X52 2 M5_M4_CDNS_765154963931 $T=50880 20850 0 0 $X=50520 $Y=20720
X53 2 M5_M4_CDNS_765154963931 $T=50880 28780 0 0 $X=50520 $Y=28650
X54 2 M5_M4_CDNS_765154963931 $T=50880 36650 0 0 $X=50520 $Y=36520
X55 2 M5_M4_CDNS_765154963931 $T=51050 12420 0 0 $X=50690 $Y=12290
X56 1 M5_M4_CDNS_765154963931 $T=53300 19220 0 0 $X=52940 $Y=19090
X57 1 M5_M4_CDNS_765154963931 $T=53300 26650 0 0 $X=52940 $Y=26520
X58 1 M5_M4_CDNS_765154963931 $T=53300 35880 0 0 $X=52940 $Y=35750
X59 1 M5_M4_CDNS_765154963931 $T=55090 43020 0 0 $X=54730 $Y=42890
X60 2 M5_M4_CDNS_765154963931 $T=57390 12420 0 0 $X=57030 $Y=12290
X61 2 M5_M4_CDNS_765154963931 $T=57390 20810 0 0 $X=57030 $Y=20680
X62 2 M5_M4_CDNS_765154963931 $T=57390 29200 0 0 $X=57030 $Y=29070
X63 2 M5_M4_CDNS_765154963931 $T=57390 37590 0 0 $X=57030 $Y=37460
X64 3 M5_M4_CDNS_765154963931 $T=77820 -5300 0 0 $X=77460 $Y=-5430
X65 2 M6_M5_CDNS_765154963932 $T=-6030 34400 0 0 $X=-6390 $Y=34270
X66 2 M6_M5_CDNS_765154963932 $T=-6030 43760 0 0 $X=-6390 $Y=43630
X67 2 M6_M5_CDNS_765154963932 $T=-6030 55320 0 0 $X=-6390 $Y=55190
X68 2 M6_M5_CDNS_765154963932 $T=-6030 65180 0 0 $X=-6390 $Y=65050
X69 1 M6_M5_CDNS_765154963932 $T=-4370 38930 0 0 $X=-4730 $Y=38800
X70 1 M6_M5_CDNS_765154963932 $T=-4370 45380 0 0 $X=-4730 $Y=45250
X71 1 M6_M5_CDNS_765154963932 $T=-4370 60080 0 0 $X=-4730 $Y=59950
X72 1 M6_M5_CDNS_765154963932 $T=-3860 70340 0 0 $X=-4220 $Y=70210
X73 2 M6_M5_CDNS_765154963932 $T=1340 28530 0 0 $X=980 $Y=28400
X74 2 M6_M5_CDNS_765154963932 $T=1340 38870 0 0 $X=980 $Y=38740
X75 2 M6_M5_CDNS_765154963932 $T=2350 48710 0 0 $X=1990 $Y=48580
X76 2 M6_M5_CDNS_765154963932 $T=2350 58460 0 0 $X=1990 $Y=58330
X77 1 M6_M5_CDNS_765154963932 $T=6020 35670 0 0 $X=5660 $Y=35540
X78 1 M6_M5_CDNS_765154963932 $T=6020 44210 0 0 $X=5660 $Y=44080
X79 1 M6_M5_CDNS_765154963932 $T=6020 52420 0 0 $X=5660 $Y=52290
X80 1 M6_M5_CDNS_765154963932 $T=6020 62650 0 0 $X=5660 $Y=62520
X81 2 M6_M5_CDNS_765154963932 $T=7810 29790 0 0 $X=7450 $Y=29660
X82 2 M6_M5_CDNS_765154963932 $T=7810 38630 0 0 $X=7450 $Y=38500
X83 2 M6_M5_CDNS_765154963932 $T=7810 45970 0 0 $X=7450 $Y=45840
X84 2 M6_M5_CDNS_765154963932 $T=7810 54500 0 0 $X=7450 $Y=54370
X85 2 M6_M5_CDNS_765154963932 $T=23540 29510 0 0 $X=23180 $Y=29380
X86 2 M6_M5_CDNS_765154963932 $T=23540 36860 0 0 $X=23180 $Y=36730
X87 2 M6_M5_CDNS_765154963932 $T=24360 21640 0 0 $X=24000 $Y=21510
X88 2 M6_M5_CDNS_765154963932 $T=26800 45560 0 0 $X=26440 $Y=45430
X89 1 M6_M5_CDNS_765154963932 $T=28170 26920 0 0 $X=27810 $Y=26790
X90 1 M6_M5_CDNS_765154963932 $T=28170 35440 0 0 $X=27810 $Y=35310
X91 1 M6_M5_CDNS_765154963932 $T=28170 44210 0 0 $X=27810 $Y=44080
X92 1 M6_M5_CDNS_765154963932 $T=28170 53250 0 0 $X=27810 $Y=53120
X93 1 M6_M5_CDNS_765154963932 $T=28170 72500 0 0 $X=27810 $Y=72370
X94 2 M6_M5_CDNS_765154963932 $T=30470 38630 0 0 $X=30110 $Y=38500
X95 2 M6_M5_CDNS_765154963932 $T=33760 21470 0 0 $X=33400 $Y=21340
X96 2 M6_M5_CDNS_765154963932 $T=33760 29680 0 0 $X=33400 $Y=29550
X97 2 M6_M5_CDNS_765154963932 $T=34980 45870 0 0 $X=34620 $Y=45740
X98 2 M6_M5_CDNS_765154963932 $T=50880 20850 0 0 $X=50520 $Y=20720
X99 2 M6_M5_CDNS_765154963932 $T=50880 28780 0 0 $X=50520 $Y=28650
X100 2 M6_M5_CDNS_765154963932 $T=50880 36650 0 0 $X=50520 $Y=36520
X101 2 M6_M5_CDNS_765154963932 $T=51050 12420 0 0 $X=50690 $Y=12290
X102 1 M6_M5_CDNS_765154963932 $T=53300 19220 0 0 $X=52940 $Y=19090
X103 1 M6_M5_CDNS_765154963932 $T=53300 26650 0 0 $X=52940 $Y=26520
X104 1 M6_M5_CDNS_765154963932 $T=53300 35880 0 0 $X=52940 $Y=35750
X105 1 M6_M5_CDNS_765154963932 $T=55090 43020 0 0 $X=54730 $Y=42890
X106 2 M6_M5_CDNS_765154963932 $T=57390 12420 0 0 $X=57030 $Y=12290