* +++++++++++++++++++++++++++++++++++++++++++++++++++++++++ *
* CDL Netlist:                                              *
*                                                           *
* Cell Name  : pipeline_mult                                *
* Netlisted  : Mon Dec  8 18:42:47 2025                     *
* PVS Version: 23.11-s036 Wed Jan 17 18:11:41 PST 2024      *
* +++++++++++++++++++++++++++++++++++++++++++++++++++++++++ *
*.LDD
*.DEVTMPLT 0 MN(g45n1svt) _nmos1v ndiff_conn(D) poly_conn(G) ndiff_conn(S) psubstrate(B)
*.DEVTMPLT 1 MP(g45p1svt) _pmos1v pdiff_conn(D) poly_conn(G) pdiff_conn(S) nwell_conn(B)

* +++++++++++++++++++++++++++++++++++++++++++++++++++++++++ *
* Sub cell: M10_M9_CDNS_765240961220                        *
* +++++++++++++++++++++++++++++++++++++++++++++++++++++++++ *
.subckt M10_M9_CDNS_765240961220 1
** N=1 EP=1 FDC=0
.ends M10_M9_CDNS_765240961220

* +++++++++++++++++++++++++++++++++++++++++++++++++++++++++ *
* Sub cell: M4_M3_CDNS_765240961221                         *
* +++++++++++++++++++++++++++++++++++++++++++++++++++++++++ *
.subckt M4_M3_CDNS_765240961221 1
** N=1 EP=1 FDC=0
.ends M4_M3_CDNS_765240961221

* +++++++++++++++++++++++++++++++++++++++++++++++++++++++++ *
* Sub cell: M4_M3_CDNS_765240961222                         *
* +++++++++++++++++++++++++++++++++++++++++++++++++++++++++ *
.subckt M4_M3_CDNS_765240961222 1
** N=1 EP=1 FDC=0
.ends M4_M3_CDNS_765240961222

* +++++++++++++++++++++++++++++++++++++++++++++++++++++++++ *
* Sub cell: M4_M3_CDNS_765240961223                         *
* +++++++++++++++++++++++++++++++++++++++++++++++++++++++++ *
.subckt M4_M3_CDNS_765240961223 1
** N=1 EP=1 FDC=0
.ends M4_M3_CDNS_765240961223

* +++++++++++++++++++++++++++++++++++++++++++++++++++++++++ *
* Sub cell: M3_M2_CDNS_765240961224                         *
* +++++++++++++++++++++++++++++++++++++++++++++++++++++++++ *
.subckt M3_M2_CDNS_765240961224 1
** N=1 EP=1 FDC=0
.ends M3_M2_CDNS_765240961224

* +++++++++++++++++++++++++++++++++++++++++++++++++++++++++ *
* Sub cell: M2_M1_CDNS_765240961225                         *
* +++++++++++++++++++++++++++++++++++++++++++++++++++++++++ *
.subckt M2_M1_CDNS_765240961225 1
** N=1 EP=1 FDC=0
.ends M2_M1_CDNS_765240961225

* +++++++++++++++++++++++++++++++++++++++++++++++++++++++++ *
* Sub cell: M4_M3_CDNS_765240961226                         *
* +++++++++++++++++++++++++++++++++++++++++++++++++++++++++ *
.subckt M4_M3_CDNS_765240961226 1
** N=1 EP=1 FDC=0
.ends M4_M3_CDNS_765240961226

* +++++++++++++++++++++++++++++++++++++++++++++++++++++++++ *
* Sub cell: M2_M1_CDNS_765240961227                         *
* +++++++++++++++++++++++++++++++++++++++++++++++++++++++++ *
.subckt M2_M1_CDNS_765240961227 1
** N=1 EP=1 FDC=0
.ends M2_M1_CDNS_765240961227

* +++++++++++++++++++++++++++++++++++++++++++++++++++++++++ *
* Sub cell: M3_M2_CDNS_765240961228                         *
* +++++++++++++++++++++++++++++++++++++++++++++++++++++++++ *
.subckt M3_M2_CDNS_765240961228 1
** N=1 EP=1 FDC=0
.ends M3_M2_CDNS_765240961228

* +++++++++++++++++++++++++++++++++++++++++++++++++++++++++ *
* Sub cell: M4_M3_CDNS_765240961229                         *
* +++++++++++++++++++++++++++++++++++++++++++++++++++++++++ *
.subckt M4_M3_CDNS_765240961229 1
** N=1 EP=1 FDC=0
.ends M4_M3_CDNS_765240961229

* +++++++++++++++++++++++++++++++++++++++++++++++++++++++++ *
* Sub cell: M11_M10_CDNS_7652409612210                      *
* +++++++++++++++++++++++++++++++++++++++++++++++++++++++++ *
.subckt M11_M10_CDNS_7652409612210 1
** N=1 EP=1 FDC=0
.ends M11_M10_CDNS_7652409612210

* +++++++++++++++++++++++++++++++++++++++++++++++++++++++++ *
* Sub cell: M5_M4_CDNS_7652409612211                        *
* +++++++++++++++++++++++++++++++++++++++++++++++++++++++++ *
.subckt M5_M4_CDNS_7652409612211 1
** N=1 EP=1 FDC=0
.ends M5_M4_CDNS_7652409612211

* +++++++++++++++++++++++++++++++++++++++++++++++++++++++++ *
* Sub cell: M5_M4_CDNS_7652409612212                        *
* +++++++++++++++++++++++++++++++++++++++++++++++++++++++++ *
.subckt M5_M4_CDNS_7652409612212 1
** N=1 EP=1 FDC=0
.ends M5_M4_CDNS_7652409612212

* +++++++++++++++++++++++++++++++++++++++++++++++++++++++++ *
* Sub cell: M7_M6_CDNS_7652409612213                        *
* +++++++++++++++++++++++++++++++++++++++++++++++++++++++++ *
.subckt M7_M6_CDNS_7652409612213 1
** N=1 EP=1 FDC=0
.ends M7_M6_CDNS_7652409612213

* +++++++++++++++++++++++++++++++++++++++++++++++++++++++++ *
* Sub cell: M3_M2_CDNS_7652409612214                        *
* +++++++++++++++++++++++++++++++++++++++++++++++++++++++++ *
.subckt M3_M2_CDNS_7652409612214 1
** N=1 EP=1 FDC=0
.ends M3_M2_CDNS_7652409612214

* +++++++++++++++++++++++++++++++++++++++++++++++++++++++++ *
* Sub cell: M3_M2_CDNS_7652409612215                        *
* +++++++++++++++++++++++++++++++++++++++++++++++++++++++++ *
.subckt M3_M2_CDNS_7652409612215 1
** N=1 EP=1 FDC=0
.ends M3_M2_CDNS_7652409612215

* +++++++++++++++++++++++++++++++++++++++++++++++++++++++++ *
* Sub cell: M8_M7_CDNS_7652409612216                        *
* +++++++++++++++++++++++++++++++++++++++++++++++++++++++++ *
.subckt M8_M7_CDNS_7652409612216 1
** N=1 EP=1 FDC=0
.ends M8_M7_CDNS_7652409612216

* +++++++++++++++++++++++++++++++++++++++++++++++++++++++++ *
* Sub cell: M2_M1_CDNS_7652409612217                        *
* +++++++++++++++++++++++++++++++++++++++++++++++++++++++++ *
.subckt M2_M1_CDNS_7652409612217 1
** N=1 EP=1 FDC=0
.ends M2_M1_CDNS_7652409612217

* +++++++++++++++++++++++++++++++++++++++++++++++++++++++++ *
* Sub cell: M4_M3_CDNS_7652409612218                        *
* +++++++++++++++++++++++++++++++++++++++++++++++++++++++++ *
.subckt M4_M3_CDNS_7652409612218 1
** N=1 EP=1 FDC=0
.ends M4_M3_CDNS_7652409612218

* +++++++++++++++++++++++++++++++++++++++++++++++++++++++++ *
* Sub cell: M6_M5_CDNS_7652409612219                        *
* +++++++++++++++++++++++++++++++++++++++++++++++++++++++++ *
.subckt M6_M5_CDNS_7652409612219 1
** N=1 EP=1 FDC=0
.ends M6_M5_CDNS_7652409612219

* +++++++++++++++++++++++++++++++++++++++++++++++++++++++++ *
* Sub cell: M2_M1_CDNS_7652409612220                        *
* +++++++++++++++++++++++++++++++++++++++++++++++++++++++++ *
.subckt M2_M1_CDNS_7652409612220 1
** N=1 EP=1 FDC=0
.ends M2_M1_CDNS_7652409612220

* +++++++++++++++++++++++++++++++++++++++++++++++++++++++++ *
* Sub cell: M9_M8_CDNS_7652409612221                        *
* +++++++++++++++++++++++++++++++++++++++++++++++++++++++++ *
.subckt M9_M8_CDNS_7652409612221 1
** N=1 EP=1 FDC=0
.ends M9_M8_CDNS_7652409612221

* +++++++++++++++++++++++++++++++++++++++++++++++++++++++++ *
* Sub cell: M1_PO_CDNS_7652409612222                        *
* +++++++++++++++++++++++++++++++++++++++++++++++++++++++++ *
.subckt M1_PO_CDNS_7652409612222 1
** N=1 EP=1 FDC=0
.ends M1_PO_CDNS_7652409612222

* +++++++++++++++++++++++++++++++++++++++++++++++++++++++++ *
* Sub cell: M1_PO_CDNS_7652409612223                        *
* +++++++++++++++++++++++++++++++++++++++++++++++++++++++++ *
.subckt M1_PO_CDNS_7652409612223 1
** N=1 EP=1 FDC=0
.ends M1_PO_CDNS_7652409612223

* +++++++++++++++++++++++++++++++++++++++++++++++++++++++++ *
* Sub cell: pmos1v_CDNS_765240961220                        *
* +++++++++++++++++++++++++++++++++++++++++++++++++++++++++ *
.subckt pmos1v_CDNS_765240961220 1 2 3 4 5
*.DEVICECLIMB
** N=5 EP=5 FDC=0
.ends pmos1v_CDNS_765240961220

* +++++++++++++++++++++++++++++++++++++++++++++++++++++++++ *
* Sub cell: nmos1v_CDNS_765240961221                        *
* +++++++++++++++++++++++++++++++++++++++++++++++++++++++++ *
.subckt nmos1v_CDNS_765240961221 1 2 3 4
*.DEVICECLIMB
** N=4 EP=4 FDC=0
.ends nmos1v_CDNS_765240961221

* +++++++++++++++++++++++++++++++++++++++++++++++++++++++++ *
* Sub cell: nmos1v_CDNS_765240961222                        *
* +++++++++++++++++++++++++++++++++++++++++++++++++++++++++ *
.subckt nmos1v_CDNS_765240961222 1 2 3
*.DEVICECLIMB
** N=3 EP=3 FDC=0
.ends nmos1v_CDNS_765240961222

* +++++++++++++++++++++++++++++++++++++++++++++++++++++++++ *
* Sub cell: c2mos                                           *
* +++++++++++++++++++++++++++++++++++++++++++++++++++++++++ *
.subckt c2mos 1 2 3 4 5 6 7 8 11 12
*.DEVICECLIMB
** N=12 EP=10 FDC=9
X0 1 M2_M1_CDNS_765240961225 $T=480 1970 0 90 $X=350 $Y=1890
X1 7 M2_M1_CDNS_765240961225 $T=1070 1420 0 90 $X=940 $Y=1340
X2 1 M2_M1_CDNS_765240961225 $T=3650 1970 0 90 $X=3520 $Y=1890
X3 7 M2_M1_CDNS_765240961225 $T=3660 1420 0 90 $X=3530 $Y=1340
X4 8 M2_M1_CDNS_765240961225 $T=4060 1720 0 90 $X=3930 $Y=1640
X5 8 M2_M1_CDNS_765240961225 $T=5220 1720 0 90 $X=5090 $Y=1640
X6 1 M2_M1_CDNS_765240961225 $T=5960 2040 0 90 $X=5830 $Y=1960
X7 7 M2_M1_CDNS_765240961225 $T=6620 1970 0 90 $X=6490 $Y=1890
X8 1 M1_PO_CDNS_7652409612222 $T=3660 1980 0 90 $X=3540 $Y=1880
X9 7 M1_PO_CDNS_7652409612222 $T=3670 1420 0 90 $X=3550 $Y=1320
X10 8 M1_PO_CDNS_7652409612222 $T=5210 1720 0 90 $X=5090 $Y=1620
X11 7 M1_PO_CDNS_7652409612222 $T=6630 1980 0 90 $X=6510 $Y=1880
X12 1 M1_PO_CDNS_7652409612222 $T=6660 1400 0 90 $X=6540 $Y=1300
X13 1 M1_PO_CDNS_7652409612223 $T=530 1970 0 0 $X=310 $Y=1850
X14 4 M1_PO_CDNS_7652409612223 $T=2110 1720 0 0 $X=1890 $Y=1600
X15 6 M1_PO_CDNS_7652409612223 $T=8090 1590 0 0 $X=7870 $Y=1470
X16 2 7 1 3 2 pmos1v_CDNS_765240961220 $T=750 2360 0 0 $X=330 $Y=2160
X17 2 9 4 3 2 pmos1v_CDNS_765240961220 $T=2240 2360 0 0 $X=1820 $Y=2160
X18 9 8 1 3 2 pmos1v_CDNS_765240961220 $T=3740 2350 0 0 $X=3320 $Y=2150
X19 2 10 8 3 2 pmos1v_CDNS_765240961220 $T=5230 2360 0 0 $X=4810 $Y=2160
X20 10 5 7 3 2 pmos1v_CDNS_765240961220 $T=6720 2340 0 0 $X=6300 $Y=2140
X21 3 1 7 3 nmos1v_CDNS_765240961221 $T=750 650 0 0 $X=330 $Y=450
X22 3 4 11 3 nmos1v_CDNS_765240961221 $T=2240 650 0 0 $X=1820 $Y=450
X23 11 7 8 3 nmos1v_CDNS_765240961221 $T=3750 650 0 0 $X=3330 $Y=450
X24 3 8 12 3 nmos1v_CDNS_765240961221 $T=5230 650 0 0 $X=4810 $Y=450
X25 12 1 5 3 nmos1v_CDNS_765240961221 $T=6720 650 0 0 $X=6300 $Y=450
X26 5 3 6 nmos1v_CDNS_765240961222 $T=8210 170 0 0 $X=7790 $Y=-30
M0 11 4 3 3 g45n1svt L=4.5e-08 W=2.4e-07 AD=3.36e-14 AS=3.36e-14 PD=7.6e-07 PS=7.6e-07 fw=2.4e-07 sa=1.4e-07 sb=1.4e-07 sca=5.37831 scb=0.00150412 scc=4.69705e-06 $X=2240 $Y=650 $dt=0
M1 8 7 11 3 g45n1svt L=4.5e-08 W=2.4e-07 AD=3.36e-14 AS=3.36e-14 PD=7.6e-07 PS=7.6e-07 fw=2.4e-07 sa=1.4e-07 sb=1.4e-07 sca=5.37831 scb=0.00150412 scc=4.69705e-06 $X=3750 $Y=650 $dt=0
M2 12 8 3 3 g45n1svt L=4.5e-08 W=2.4e-07 AD=3.36e-14 AS=3.36e-14 PD=7.6e-07 PS=7.6e-07 fw=2.4e-07 sa=1.4e-07 sb=1.4e-07 sca=5.37831 scb=0.00150412 scc=4.69705e-06 $X=5230 $Y=650 $dt=0
M3 5 1 12 3 g45n1svt L=4.5e-08 W=2.4e-07 AD=3.36e-14 AS=3.36e-14 PD=7.6e-07 PS=7.6e-07 fw=2.4e-07 sa=1.4e-07 sb=1.4e-07 sca=5.37831 scb=0.00150412 scc=4.69705e-06 $X=6720 $Y=650 $dt=0
M4 7 1 2 2 g45p1svt L=4.5e-08 W=4.8e-07 AD=6.72e-14 AS=6.72e-14 PD=1.24e-06 PS=1.24e-06 fw=4.8e-07 sa=1.4e-07 sb=1.4e-07 sca=25.27 scb=0.0231774 scc=0.00199917 $X=750 $Y=2360 $dt=1
M5 9 4 2 2 g45p1svt L=4.5e-08 W=4.8e-07 AD=6.72e-14 AS=6.72e-14 PD=1.24e-06 PS=1.24e-06 fw=4.8e-07 sa=1.4e-07 sb=1.4e-07 sca=19.8778 scb=0.0157187 scc=0.00185543 $X=2240 $Y=2360 $dt=1
M6 8 1 9 2 g45p1svt L=4.5e-08 W=4.8e-07 AD=6.72e-14 AS=6.72e-14 PD=1.24e-06 PS=1.24e-06 fw=4.8e-07 sa=1.4e-07 sb=1.4e-07 sca=20.7063 scb=0.016025 scc=0.00198503 $X=3740 $Y=2350 $dt=1
M7 10 8 2 2 g45p1svt L=4.5e-08 W=4.8e-07 AD=6.72e-14 AS=6.72e-14 PD=1.24e-06 PS=1.24e-06 fw=4.8e-07 sa=1.4e-07 sb=1.4e-07 sca=19.8778 scb=0.0157187 scc=0.00185543 $X=5230 $Y=2360 $dt=1
M8 5 7 10 2 g45p1svt L=4.5e-08 W=4.8e-07 AD=6.72e-14 AS=6.72e-14 PD=1.24e-06 PS=1.24e-06 fw=4.8e-07 sa=1.4e-07 sb=1.4e-07 sca=25.6749 scb=0.0214174 scc=0.0021813 $X=6720 $Y=2340 $dt=1
.ends c2mos

* +++++++++++++++++++++++++++++++++++++++++++++++++++++++++ *
* Sub cell: M1_NWELL_CDNS_7652409612228                     *
* +++++++++++++++++++++++++++++++++++++++++++++++++++++++++ *
.subckt M1_NWELL_CDNS_7652409612228 1
** N=1 EP=1 FDC=0
.ends M1_NWELL_CDNS_7652409612228

* +++++++++++++++++++++++++++++++++++++++++++++++++++++++++ *
* Sub cell: M2_M1_CDNS_7652409612229                        *
* +++++++++++++++++++++++++++++++++++++++++++++++++++++++++ *
.subckt M2_M1_CDNS_7652409612229 1
** N=1 EP=1 FDC=0
.ends M2_M1_CDNS_7652409612229

* +++++++++++++++++++++++++++++++++++++++++++++++++++++++++ *
* Sub cell: M1_PSUB_CDNS_7652409612230                      *
* +++++++++++++++++++++++++++++++++++++++++++++++++++++++++ *
.subckt M1_PSUB_CDNS_7652409612230 1
** N=1 EP=1 FDC=0
.ends M1_PSUB_CDNS_7652409612230

* +++++++++++++++++++++++++++++++++++++++++++++++++++++++++ *
* Sub cell: M1_PO_CDNS_7652409612231                        *
* +++++++++++++++++++++++++++++++++++++++++++++++++++++++++ *
.subckt M1_PO_CDNS_7652409612231 1
** N=1 EP=1 FDC=0
.ends M1_PO_CDNS_7652409612231

* +++++++++++++++++++++++++++++++++++++++++++++++++++++++++ *
* Sub cell: nmos1v_CDNS_765240961223                        *
* +++++++++++++++++++++++++++++++++++++++++++++++++++++++++ *
.subckt nmos1v_CDNS_765240961223 1 2 3 4 5
** N=5 EP=5 FDC=2
M0 3 4 1 5 g45n1svt L=4.5e-08 W=7.2e-07 AD=1.152e-13 AS=1.008e-13 PD=1.76e-06 PS=1.72e-06 fw=7.2e-07 sa=1.4e-07 sb=3.45e-07 sca=3.60561 scb=0.000231313 scc=1.03051e-07 $X=0 $Y=0 $dt=0
M1 2 4 3 5 g45n1svt L=4.5e-08 W=7.2e-07 AD=1.008e-13 AS=1.152e-13 PD=1.72e-06 PS=1.76e-06 fw=7.2e-07 sa=3.45e-07 sb=1.4e-07 sca=3.60561 scb=0.000231313 scc=1.03051e-07 $X=410 $Y=0 $dt=0
.ends nmos1v_CDNS_765240961223

* +++++++++++++++++++++++++++++++++++++++++++++++++++++++++ *
* Sub cell: pmos1v_CDNS_765240961224                        *
* +++++++++++++++++++++++++++++++++++++++++++++++++++++++++ *
.subckt pmos1v_CDNS_765240961224 1 2 3 4 5 6
*.DEVICECLIMB
** N=6 EP=6 FDC=0
.ends pmos1v_CDNS_765240961224

* +++++++++++++++++++++++++++++++++++++++++++++++++++++++++ *
* Sub cell: nmos1v_CDNS_765240961225                        *
* +++++++++++++++++++++++++++++++++++++++++++++++++++++++++ *
.subckt nmos1v_CDNS_765240961225 1 2 3 4 5
** N=5 EP=5 FDC=2
M0 2 3 1 5 g45n1svt L=4.5e-08 W=3.6e-07 AD=5.76e-14 AS=5.04e-14 PD=1.04e-06 PS=1e-06 fw=3.6e-07 sa=1.4e-07 sb=3.45e-07 sca=4.15332 scb=0.000375834 scc=2.03107e-07 $X=0 $Y=0 $dt=0
M1 4 3 2 5 g45n1svt L=4.5e-08 W=3.6e-07 AD=5.04e-14 AS=5.76e-14 PD=1e-06 PS=1.04e-06 fw=3.6e-07 sa=3.45e-07 sb=1.4e-07 sca=4.15332 scb=0.000375834 scc=2.03107e-07 $X=410 $Y=0 $dt=0
.ends nmos1v_CDNS_765240961225

* +++++++++++++++++++++++++++++++++++++++++++++++++++++++++ *
* Sub cell: inv                                             *
* +++++++++++++++++++++++++++++++++++++++++++++++++++++++++ *
.subckt inv 1 2 3 4
*.DEVICECLIMB
** N=4 EP=4 FDC=2
X0 2 M1_NWELL_CDNS_7652409612228 $T=190 2570 0 0 $X=-230 $Y=2270
X1 4 M1_PSUB_CDNS_7652409612230 $T=190 -2020 0 0 $X=-190 $Y=-2160
X2 1 M1_PO_CDNS_7652409612231 $T=-160 30 0 0 $X=-260 $Y=-330
X3 2 3 1 2 4 2 pmos1v_CDNS_765240961224 $T=-60 630 0 0 $X=-480 $Y=430
X4 4 3 1 4 4 nmos1v_CDNS_765240961225 $T=-60 -1520 0 0 $X=-480 $Y=-1720
.ends inv

* +++++++++++++++++++++++++++++++++++++++++++++++++++++++++ *
* Sub cell: and2                                            *
* +++++++++++++++++++++++++++++++++++++++++++++++++++++++++ *
.subckt and2 1 2 3 4 5 6 7
*.DEVICECLIMB
** N=7 EP=7 FDC=9
X0 2 M1_NWELL_CDNS_7652409612228 $T=-1350 2870 0 0 $X=-1770 $Y=2570
X1 6 M2_M1_CDNS_7652409612229 $T=-2410 -1220 0 0 $X=-2490 $Y=-1470
X2 7 M2_M1_CDNS_7652409612229 $T=-2000 1650 0 0 $X=-2080 $Y=1400
X3 6 M2_M1_CDNS_7652409612229 $T=-1590 -1220 0 0 $X=-1670 $Y=-1470
X4 6 M2_M1_CDNS_7652409612229 $T=-1110 -1220 0 0 $X=-1190 $Y=-1470
X5 7 M2_M1_CDNS_7652409612229 $T=-700 1650 0 0 $X=-780 $Y=1400
X6 6 M2_M1_CDNS_7652409612229 $T=-290 -1220 0 0 $X=-370 $Y=-1470
X7 4 M1_PSUB_CDNS_7652409612230 $T=-700 -2440 0 0 $X=-1080 $Y=-2580
X8 1 M1_PO_CDNS_7652409612231 $T=-2350 360 0 0 $X=-2450 $Y=0
X9 3 M1_PO_CDNS_7652409612231 $T=-1050 60 0 0 $X=-1150 $Y=-300
X10 6 6 7 1 4 nmos1v_CDNS_765240961223 $T=-2250 -1940 0 0 $X=-2670 $Y=-2140
X11 6 6 4 3 4 nmos1v_CDNS_765240961223 $T=-950 -1940 0 0 $X=-1370 $Y=-2140
X12 2 7 1 2 4 2 pmos1v_CDNS_765240961224 $T=-2250 930 0 0 $X=-2670 $Y=730
X13 2 7 3 2 4 2 pmos1v_CDNS_765240961224 $T=-950 930 0 0 $X=-1370 $Y=730
X14 7 2 5 4 inv $T=410 300 0 0 $X=-70 $Y=-1860
M0 2 3 7 2 g45p1svt L=4.5e-08 W=7.2e-07 AD=1.008e-13 AS=1.152e-13 PD=1.72e-06 PS=1.76e-06 fw=7.2e-07 sa=3.45e-07 sb=1.4e-07 sca=25.8711 scb=0.0135953 scc=0.00231129 $X=-540 $Y=930 $dt=1
M1 5 7 2 2 g45p1svt L=4.5e-08 W=7.2e-07 AD=1.152e-13 AS=1.008e-13 PD=1.76e-06 PS=1.72e-06 fw=7.2e-07 sa=1.4e-07 sb=3.45e-07 sca=30.0436 scb=0.0194268 scc=0.00239616 $X=350 $Y=930 $dt=1
M2 2 7 5 2 g45p1svt L=4.5e-08 W=7.2e-07 AD=1.008e-13 AS=1.152e-13 PD=1.72e-06 PS=1.76e-06 fw=7.2e-07 sa=3.45e-07 sb=1.4e-07 sca=44.9648 scb=0.0375178 scc=0.00495812 $X=760 $Y=930 $dt=1
.ends and2

* +++++++++++++++++++++++++++++++++++++++++++++++++++++++++ *
* Sub cell: M2_M1_CDNS_7652409612226                        *
* +++++++++++++++++++++++++++++++++++++++++++++++++++++++++ *
.subckt M2_M1_CDNS_7652409612226 1
** N=1 EP=1 FDC=0
.ends M2_M1_CDNS_7652409612226

* +++++++++++++++++++++++++++++++++++++++++++++++++++++++++ *
* Sub cell: M2_M1_CDNS_7652409612227                        *
* +++++++++++++++++++++++++++++++++++++++++++++++++++++++++ *
.subckt M2_M1_CDNS_7652409612227 1
** N=1 EP=1 FDC=0
.ends M2_M1_CDNS_7652409612227

* +++++++++++++++++++++++++++++++++++++++++++++++++++++++++ *
* Sub cell: xor                                             *
* +++++++++++++++++++++++++++++++++++++++++++++++++++++++++ *
.subckt xor 1 2 3 4 5 6
*.DEVICECLIMB
** N=6 EP=6 FDC=9
X0 1 M1_PO_CDNS_7652409612222 $T=-450 10 0 0 $X=-550 $Y=-110
X1 1 M1_PO_CDNS_7652409612222 $T=-450 1890 0 0 $X=-550 $Y=1770
X2 4 M1_PO_CDNS_7652409612222 $T=-40 -2140 0 0 $X=-140 $Y=-2260
X3 1 M1_PO_CDNS_7652409612222 $T=-40 1890 0 0 $X=-140 $Y=1770
X4 6 M1_PO_CDNS_7652409612222 $T=850 -980 0 0 $X=750 $Y=-1100
X5 4 M1_PO_CDNS_7652409612223 $T=-250 -840 0 0 $X=-470 $Y=-960
X6 6 M2_M1_CDNS_7652409612226 $T=-30 -450 0 0 $X=-160 $Y=-580
X7 5 M2_M1_CDNS_7652409612226 $T=1330 -190 0 0 $X=1200 $Y=-320
X8 6 M2_M1_CDNS_7652409612227 $T=-300 -1260 0 0 $X=-430 $Y=-1390
X9 6 M2_M1_CDNS_7652409612227 $T=-250 380 0 0 $X=-380 $Y=250
X10 5 M2_M1_CDNS_7652409612229 $T=-660 -1560 0 0 $X=-740 $Y=-1810
X11 5 M2_M1_CDNS_7652409612229 $T=-660 950 0 0 $X=-740 $Y=700
X12 5 M2_M1_CDNS_7652409612229 $T=160 -1560 0 0 $X=80 $Y=-1810
X13 5 M2_M1_CDNS_7652409612229 $T=160 950 0 0 $X=80 $Y=700
X14 5 M2_M1_CDNS_7652409612229 $T=1050 -1560 0 0 $X=970 $Y=-1810
X15 5 M2_M1_CDNS_7652409612229 $T=1050 950 0 0 $X=970 $Y=700
X16 5 6 1 5 3 2 pmos1v_CDNS_765240961224 $T=-500 230 0 0 $X=-920 $Y=30
X17 1 5 6 1 3 2 pmos1v_CDNS_765240961224 $T=800 230 0 0 $X=380 $Y=30
X18 5 6 4 5 3 nmos1v_CDNS_765240961225 $T=-500 -1920 0 0 $X=-920 $Y=-2120
X19 4 5 6 4 3 nmos1v_CDNS_765240961225 $T=800 -1920 0 0 $X=380 $Y=-2120
X20 1 2 4 3 inv $T=-1740 -400 0 0 $X=-2220 $Y=-2560
M0 5 1 6 2 g45p1svt L=4.5e-08 W=7.2e-07 AD=1.008e-13 AS=1.152e-13 PD=1.72e-06 PS=1.76e-06 fw=7.2e-07 sa=3.45e-07 sb=1.4e-07 sca=25.5135 scb=0.01349 scc=0.00231127 $X=-90 $Y=230 $dt=1
M1 5 6 1 2 g45p1svt L=4.5e-08 W=7.2e-07 AD=1.152e-13 AS=1.008e-13 PD=1.76e-06 PS=1.72e-06 fw=7.2e-07 sa=1.4e-07 sb=3.45e-07 sca=25.5135 scb=0.01349 scc=0.00231127 $X=800 $Y=230 $dt=1
M2 1 6 5 2 g45p1svt L=4.5e-08 W=7.2e-07 AD=1.008e-13 AS=1.152e-13 PD=1.72e-06 PS=1.76e-06 fw=7.2e-07 sa=3.45e-07 sb=1.4e-07 sca=25.5135 scb=0.01349 scc=0.00231127 $X=1210 $Y=230 $dt=1
.ends xor

* +++++++++++++++++++++++++++++++++++++++++++++++++++++++++ *
* Sub cell: half_adder                                      *
* +++++++++++++++++++++++++++++++++++++++++++++++++++++++++ *
.subckt half_adder 1 2 3 4 5 6 7
** N=9 EP=7 FDC=24
X0 1 M3_M2_CDNS_765240961224 $T=2760 3570 0 0 $X=2680 $Y=3440
X1 2 M3_M2_CDNS_765240961224 $T=4630 3110 0 0 $X=4550 $Y=2980
X2 6 M3_M2_CDNS_765240961224 $T=9970 3310 0 0 $X=9890 $Y=3180
X3 5 M3_M2_CDNS_765240961224 $T=10180 2730 0 0 $X=10100 $Y=2600
X4 6 M2_M1_CDNS_765240961225 $T=9970 3310 0 0 $X=9890 $Y=3180
X5 5 M2_M1_CDNS_765240961225 $T=10180 2730 0 0 $X=10100 $Y=2600
X6 1 M2_M1_CDNS_7652409612226 $T=2760 2580 0 0 $X=2630 $Y=2450
X7 1 M2_M1_CDNS_7652409612226 $T=7960 2810 0 0 $X=7830 $Y=2680
X8 5 M2_M1_CDNS_7652409612227 $T=6360 3430 0 0 $X=6230 $Y=3300
X9 2 4 1 3 6 9 8 and2 $T=9010 2860 0 0 $X=6340 $Y=280
X10 1 4 3 7 5 2 xor $T=4660 3560 0 0 $X=2440 $Y=1000
M0 7 1 4 4 g45p1svt L=4.5e-08 W=7.2e-07 AD=1.152e-13 AS=1.008e-13 PD=1.76e-06 PS=1.72e-06 fw=7.2e-07 sa=1.4e-07 sb=3.45e-07 sca=44.9648 scb=0.0375178 scc=0.00495812 $X=2860 $Y=3790 $dt=1
M1 4 1 7 4 g45p1svt L=4.5e-08 W=7.2e-07 AD=1.008e-13 AS=1.152e-13 PD=1.72e-06 PS=1.76e-06 fw=7.2e-07 sa=3.45e-07 sb=1.4e-07 sca=30.0436 scb=0.0194268 scc=0.00239616 $X=3270 $Y=3790 $dt=1
M2 2 1 5 4 g45p1svt L=4.5e-08 W=7.2e-07 AD=1.152e-13 AS=1.008e-13 PD=1.76e-06 PS=1.72e-06 fw=7.2e-07 sa=1.4e-07 sb=3.45e-07 sca=25.8711 scb=0.0135953 scc=0.00231129 $X=4160 $Y=3790 $dt=1
M3 8 2 4 4 g45p1svt L=4.5e-08 W=7.2e-07 AD=1.152e-13 AS=1.008e-13 PD=1.76e-06 PS=1.72e-06 fw=7.2e-07 sa=1.4e-07 sb=3.45e-07 sca=25.5135 scb=0.01349 scc=0.00231127 $X=6760 $Y=3790 $dt=1
M4 4 2 8 4 g45p1svt L=4.5e-08 W=7.2e-07 AD=1.008e-13 AS=1.152e-13 PD=1.72e-06 PS=1.76e-06 fw=7.2e-07 sa=3.45e-07 sb=1.4e-07 sca=25.5135 scb=0.01349 scc=0.00231127 $X=7170 $Y=3790 $dt=1
M5 8 1 4 4 g45p1svt L=4.5e-08 W=7.2e-07 AD=1.152e-13 AS=1.008e-13 PD=1.76e-06 PS=1.72e-06 fw=7.2e-07 sa=1.4e-07 sb=3.45e-07 sca=25.5135 scb=0.01349 scc=0.00231127 $X=8060 $Y=3790 $dt=1
.ends half_adder

* +++++++++++++++++++++++++++++++++++++++++++++++++++++++++ *
* Sub cell: M3_M2_CDNS_7652409612235                        *
* +++++++++++++++++++++++++++++++++++++++++++++++++++++++++ *
.subckt M3_M2_CDNS_7652409612235 1
** N=1 EP=1 FDC=0
.ends M3_M2_CDNS_7652409612235

* +++++++++++++++++++++++++++++++++++++++++++++++++++++++++ *
* Sub cell: nmos1v_CDNS_765240961226                        *
* +++++++++++++++++++++++++++++++++++++++++++++++++++++++++ *
.subckt nmos1v_CDNS_765240961226 1 2 3 4 5 6 7 8 9
** N=9 EP=9 FDC=4
M0 2 3 1 4 g45n1svt L=4.5e-08 W=3.6e-07 AD=5.76e-14 AS=5.04e-14 PD=1.04e-06 PS=1e-06 fw=3.6e-07 sa=1.4e-07 sb=7.55e-07 sca=4.15332 scb=0.000375834 scc=2.03107e-07 $X=0 $Y=0 $dt=0
M1 4 6 2 4 g45n1svt L=4.5e-08 W=3.6e-07 AD=5.76e-14 AS=5.76e-14 PD=1.04e-06 PS=1.04e-06 fw=3.6e-07 sa=3.45e-07 sb=5.5e-07 sca=4.15332 scb=0.000375834 scc=2.03107e-07 $X=410 $Y=0 $dt=0
M2 5 7 4 4 g45n1svt L=4.5e-08 W=3.6e-07 AD=5.76e-14 AS=5.76e-14 PD=1.04e-06 PS=1.04e-06 fw=3.6e-07 sa=5.5e-07 sb=3.45e-07 sca=4.15332 scb=0.000375834 scc=2.03107e-07 $X=820 $Y=0 $dt=0
M3 8 9 5 4 g45n1svt L=4.5e-08 W=3.6e-07 AD=5.04e-14 AS=5.76e-14 PD=1e-06 PS=1.04e-06 fw=3.6e-07 sa=7.55e-07 sb=1.4e-07 sca=4.15332 scb=0.000375834 scc=2.03107e-07 $X=1230 $Y=0 $dt=0
.ends nmos1v_CDNS_765240961226

* +++++++++++++++++++++++++++++++++++++++++++++++++++++++++ *
* Sub cell: pmos1v_CDNS_765240961227                        *
* +++++++++++++++++++++++++++++++++++++++++++++++++++++++++ *
.subckt pmos1v_CDNS_765240961227 1 2 3 4 5 6 7 8 9 10
+ 11
** N=11 EP=11 FDC=4
M0 2 4 1 11 g45p1svt L=4.5e-08 W=7.2e-07 AD=1.152e-13 AS=1.008e-13 PD=1.76e-06 PS=1.72e-06 fw=7.2e-07 sa=1.4e-07 sb=7.55e-07 sca=25.5135 scb=0.01349 scc=0.00231127 $X=0 $Y=0 $dt=1
M1 3 5 2 11 g45p1svt L=4.5e-08 W=7.2e-07 AD=1.152e-13 AS=1.152e-13 PD=1.76e-06 PS=1.76e-06 fw=7.2e-07 sa=3.45e-07 sb=5.5e-07 sca=25.5135 scb=0.01349 scc=0.00231127 $X=410 $Y=0 $dt=1
M2 6 8 3 11 g45p1svt L=4.5e-08 W=7.2e-07 AD=1.152e-13 AS=1.152e-13 PD=1.76e-06 PS=1.76e-06 fw=7.2e-07 sa=5.5e-07 sb=3.45e-07 sca=25.5135 scb=0.01349 scc=0.00231127 $X=820 $Y=0 $dt=1
M3 7 9 6 11 g45p1svt L=4.5e-08 W=7.2e-07 AD=1.008e-13 AS=1.152e-13 PD=1.72e-06 PS=1.76e-06 fw=7.2e-07 sa=7.55e-07 sb=1.4e-07 sca=25.8711 scb=0.0135953 scc=0.00231129 $X=1230 $Y=0 $dt=1
.ends pmos1v_CDNS_765240961227

* +++++++++++++++++++++++++++++++++++++++++++++++++++++++++ *
* Sub cell: fa_co_network                                   *
* +++++++++++++++++++++++++++++++++++++++++++++++++++++++++ *
.subckt fa_co_network 1 2 3 4 5 6 7 8 9 10
+ 11
** N=11 EP=11 FDC=8
X0 1 M2_M1_CDNS_765240961225 $T=-830 -970 0 0 $X=-910 $Y=-1100
X1 2 M2_M1_CDNS_765240961225 $T=-220 -60 0 0 $X=-300 $Y=-190
X2 2 M2_M1_CDNS_765240961225 $T=200 730 0 0 $X=120 $Y=600
X3 1 M2_M1_CDNS_765240961225 $T=810 -970 0 0 $X=730 $Y=-1100
X4 2 M1_PO_CDNS_7652409612222 $T=-220 -60 0 0 $X=-320 $Y=-180
X5 5 M1_PO_CDNS_7652409612222 $T=-210 730 0 0 $X=-310 $Y=610
X6 5 M1_PO_CDNS_7652409612222 $T=190 -60 0 0 $X=90 $Y=-180
X7 2 M1_PO_CDNS_7652409612222 $T=200 730 0 0 $X=100 $Y=610
X8 4 M1_NWELL_CDNS_7652409612228 $T=-10 2990 0 0 $X=-430 $Y=2690
X9 6 M1_PSUB_CDNS_7652409612230 $T=0 -1600 0 0 $X=-380 $Y=-1740
X10 3 M1_PO_CDNS_7652409612231 $T=-590 550 0 0 $X=-690 $Y=190
X11 7 M1_PO_CDNS_7652409612231 $T=570 550 0 0 $X=470 $Y=190
X12 1 8 3 6 9 2 5 1 7 nmos1v_CDNS_765240961226 $T=-670 -1100 0 0 $X=-1090 $Y=-1300
X13 1 10 4 3 5 11 1 2 7 6
+ 4 pmos1v_CDNS_765240961227 $T=-670 1050 0 0 $X=-1090 $Y=850
.ends fa_co_network

* +++++++++++++++++++++++++++++++++++++++++++++++++++++++++ *
* Sub cell: full_adder                                      *
* +++++++++++++++++++++++++++++++++++++++++++++++++++++++++ *
.subckt full_adder 1 2 3 4 5 6 7 8 9 10
+ 11
** N=15 EP=11 FDC=36
X0 2 M4_M3_CDNS_765240961222 $T=6980 3080 0 0 $X=6900 $Y=2950
X1 2 M4_M3_CDNS_765240961222 $T=10140 2970 0 0 $X=10060 $Y=2840
X2 1 M3_M2_CDNS_765240961224 $T=2270 3860 0 0 $X=2190 $Y=3730
X3 2 M3_M2_CDNS_765240961224 $T=5790 3080 0 0 $X=5710 $Y=2950
X4 6 M3_M2_CDNS_765240961224 $T=9120 4760 0 0 $X=9040 $Y=4630
X5 2 M3_M2_CDNS_765240961224 $T=11410 2940 0 0 $X=11330 $Y=2810
X6 7 M3_M2_CDNS_765240961224 $T=12920 3510 0 0 $X=12840 $Y=3380
X7 2 M2_M1_CDNS_765240961225 $T=5250 3070 0 0 $X=5170 $Y=2940
X8 8 M2_M1_CDNS_765240961225 $T=9530 2380 0 0 $X=9450 $Y=2250
X9 9 M2_M1_CDNS_765240961225 $T=9530 5090 0 0 $X=9450 $Y=4960
X10 4 M2_M1_CDNS_765240961225 $T=10820 5970 0 0 $X=10740 $Y=5840
X11 8 M2_M1_CDNS_765240961225 $T=11040 2940 0 0 $X=10960 $Y=2810
X12 2 M2_M1_CDNS_765240961225 $T=11390 3320 0 0 $X=11310 $Y=3190
X13 7 M2_M1_CDNS_765240961225 $T=12920 3510 0 0 $X=12840 $Y=3380
X14 4 M2_M1_CDNS_7652409612226 $T=6470 5920 0 0 $X=6340 $Y=5790
X15 3 M2_M1_CDNS_7652409612226 $T=7620 3360 0 0 $X=7490 $Y=3230
X16 3 M2_M1_CDNS_7652409612226 $T=10320 3640 0 0 $X=10190 $Y=3510
X17 4 M2_M1_CDNS_7652409612227 $T=3420 5920 0 0 $X=3290 $Y=5790
X18 10 4 7 5 inv $T=12350 3410 0 0 $X=11870 $Y=1250
X19 1 4 5 11 9 2 xor $T=4170 3810 0 0 $X=1950 $Y=1250
X20 9 4 5 8 6 3 xor $T=8070 3810 0 0 $X=5850 $Y=1250
X21 3 M3_M2_CDNS_7652409612235 $T=7300 3360 0 0 $X=7170 $Y=3230
X22 3 M3_M2_CDNS_7652409612235 $T=10110 3640 0 0 $X=9980 $Y=3510
X23 10 9 3 4 8 5 2 12 13 14
+ 15 fa_co_network $T=10840 2990 0 0 $X=9750 $Y=1250
M0 11 1 4 4 g45p1svt L=4.5e-08 W=7.2e-07 AD=1.152e-13 AS=1.008e-13 PD=1.76e-06 PS=1.72e-06 fw=7.2e-07 sa=1.4e-07 sb=3.45e-07 sca=44.9648 scb=0.0375178 scc=0.00495812 $X=2370 $Y=4040 $dt=1
M1 4 1 11 4 g45p1svt L=4.5e-08 W=7.2e-07 AD=1.008e-13 AS=1.152e-13 PD=1.72e-06 PS=1.76e-06 fw=7.2e-07 sa=3.45e-07 sb=1.4e-07 sca=30.0436 scb=0.0194268 scc=0.00239616 $X=2780 $Y=4040 $dt=1
M2 2 1 9 4 g45p1svt L=4.5e-08 W=7.2e-07 AD=1.152e-13 AS=1.008e-13 PD=1.76e-06 PS=1.72e-06 fw=7.2e-07 sa=1.4e-07 sb=3.45e-07 sca=25.8711 scb=0.0135953 scc=0.00231129 $X=3670 $Y=4040 $dt=1
M3 8 9 4 4 g45p1svt L=4.5e-08 W=7.2e-07 AD=1.152e-13 AS=1.008e-13 PD=1.76e-06 PS=1.72e-06 fw=7.2e-07 sa=1.4e-07 sb=3.45e-07 sca=25.5135 scb=0.01349 scc=0.00231127 $X=6270 $Y=4040 $dt=1
M4 4 9 8 4 g45p1svt L=4.5e-08 W=7.2e-07 AD=1.008e-13 AS=1.152e-13 PD=1.72e-06 PS=1.76e-06 fw=7.2e-07 sa=3.45e-07 sb=1.4e-07 sca=25.5135 scb=0.01349 scc=0.00231127 $X=6680 $Y=4040 $dt=1
M5 3 9 6 4 g45p1svt L=4.5e-08 W=7.2e-07 AD=1.152e-13 AS=1.008e-13 PD=1.76e-06 PS=1.72e-06 fw=7.2e-07 sa=1.4e-07 sb=3.45e-07 sca=25.5135 scb=0.01349 scc=0.00231127 $X=7570 $Y=4040 $dt=1
M6 7 10 4 4 g45p1svt L=4.5e-08 W=7.2e-07 AD=1.152e-13 AS=1.008e-13 PD=1.76e-06 PS=1.72e-06 fw=7.2e-07 sa=1.4e-07 sb=3.45e-07 sca=30.0436 scb=0.0194268 scc=0.00239616 $X=12290 $Y=4040 $dt=1
M7 4 10 7 4 g45p1svt L=4.5e-08 W=7.2e-07 AD=1.008e-13 AS=1.152e-13 PD=1.72e-06 PS=1.76e-06 fw=7.2e-07 sa=3.45e-07 sb=1.4e-07 sca=44.9648 scb=0.0375178 scc=0.00495812 $X=12700 $Y=4040 $dt=1
.ends full_adder

* +++++++++++++++++++++++++++++++++++++++++++++++++++++++++ *
* Sub cell: pipeline_mult                                   *
* +++++++++++++++++++++++++++++++++++++++++++++++++++++++++ *
.subckt pipeline_mult 4 3 14 13 42 43 44 45 46 58
+ 57 56 59 60 61 62 63 47 2 1
** N=199 EP=20 FDC=697
X0 1 M10_M9_CDNS_765240961220 $T=17800 31890 0 0 $X=16840 $Y=31610
X1 1 M10_M9_CDNS_765240961220 $T=17800 41250 0 0 $X=16840 $Y=40970
X2 1 M10_M9_CDNS_765240961220 $T=17800 52810 0 0 $X=16840 $Y=52530
X3 1 M10_M9_CDNS_765240961220 $T=17800 62670 0 0 $X=16840 $Y=62390
X4 2 M10_M9_CDNS_765240961220 $T=19460 36430 0 0 $X=18500 $Y=36150
X5 2 M10_M9_CDNS_765240961220 $T=19460 42880 0 0 $X=18500 $Y=42600
X6 2 M10_M9_CDNS_765240961220 $T=19460 57580 0 0 $X=18500 $Y=57300
X7 2 M10_M9_CDNS_765240961220 $T=19970 67840 0 0 $X=19010 $Y=67560
X8 1 M10_M9_CDNS_765240961220 $T=25170 26020 0 0 $X=24210 $Y=25740
X9 1 M10_M9_CDNS_765240961220 $T=25170 36360 0 0 $X=24210 $Y=36080
X10 1 M10_M9_CDNS_765240961220 $T=26180 46200 0 0 $X=25220 $Y=45920
X11 1 M10_M9_CDNS_765240961220 $T=26180 55950 0 0 $X=25220 $Y=55670
X12 2 M10_M9_CDNS_765240961220 $T=29850 33170 0 0 $X=28890 $Y=32890
X13 2 M10_M9_CDNS_765240961220 $T=29850 41710 0 0 $X=28890 $Y=41430
X14 2 M10_M9_CDNS_765240961220 $T=29850 49920 0 0 $X=28890 $Y=49640
X15 2 M10_M9_CDNS_765240961220 $T=29850 60150 0 0 $X=28890 $Y=59870
X16 1 M10_M9_CDNS_765240961220 $T=31640 27280 0 0 $X=30680 $Y=27000
X17 1 M10_M9_CDNS_765240961220 $T=31640 36120 0 0 $X=30680 $Y=35840
X18 1 M10_M9_CDNS_765240961220 $T=31640 43460 0 0 $X=30680 $Y=43180
X19 1 M10_M9_CDNS_765240961220 $T=31640 51990 0 0 $X=30680 $Y=51710
X20 1 M10_M9_CDNS_765240961220 $T=47370 27000 0 0 $X=46410 $Y=26720