* +++++++++++++++++++++++++++++++++++++++++++++++++++++++++ *
* CDL Netlist:                                              *
*                                                           *
* Cell Name  : mult_auto                                    *
* Netlisted  : Sat Dec  6 18:47:50 2025                     *
* PVS Version: 23.11-s036 Wed Jan 17 18:11:41 PST 2024      *
* +++++++++++++++++++++++++++++++++++++++++++++++++++++++++ *
*.LDD
*.DEVTMPLT 0 MN(g45n1svt) _nmos1v ndiff_conn(D) poly_conn(G) ndiff_conn(S) psubstrate(B)
*.DEVTMPLT 1 MP(g45p1svt) _pmos1v pdiff_conn(D) poly_conn(G) pdiff_conn(S) nwell_conn(B)

* +++++++++++++++++++++++++++++++++++++++++++++++++++++++++ *
* Sub cell: M4_M3_CDNS_765068464210                         *
* +++++++++++++++++++++++++++++++++++++++++++++++++++++++++ *
.subckt M4_M3_CDNS_765068464210 1
** N=1 EP=1 FDC=0
.ends M4_M3_CDNS_765068464210

* +++++++++++++++++++++++++++++++++++++++++++++++++++++++++ *
* Sub cell: M2_M1_CDNS_765068464211                         *
* +++++++++++++++++++++++++++++++++++++++++++++++++++++++++ *
.subckt M2_M1_CDNS_765068464211 1
** N=1 EP=1 FDC=0
.ends M2_M1_CDNS_765068464211

* +++++++++++++++++++++++++++++++++++++++++++++++++++++++++ *
* Sub cell: M3_M2_CDNS_765068464212                         *
* +++++++++++++++++++++++++++++++++++++++++++++++++++++++++ *
.subckt M3_M2_CDNS_765068464212 1
** N=1 EP=1 FDC=0
.ends M3_M2_CDNS_765068464212

* +++++++++++++++++++++++++++++++++++++++++++++++++++++++++ *
* Sub cell: M2_M1_CDNS_765068464213                         *
* +++++++++++++++++++++++++++++++++++++++++++++++++++++++++ *
.subckt M2_M1_CDNS_765068464213 1
** N=1 EP=1 FDC=0
.ends M2_M1_CDNS_765068464213

* +++++++++++++++++++++++++++++++++++++++++++++++++++++++++ *
* Sub cell: M4_M3_CDNS_765068464214                         *
* +++++++++++++++++++++++++++++++++++++++++++++++++++++++++ *
.subckt M4_M3_CDNS_765068464214 1
** N=1 EP=1 FDC=0
.ends M4_M3_CDNS_765068464214

* +++++++++++++++++++++++++++++++++++++++++++++++++++++++++ *
* Sub cell: M4_M3_CDNS_765068464215                         *
* +++++++++++++++++++++++++++++++++++++++++++++++++++++++++ *
.subckt M4_M3_CDNS_765068464215 1
** N=1 EP=1 FDC=0
.ends M4_M3_CDNS_765068464215

* +++++++++++++++++++++++++++++++++++++++++++++++++++++++++ *
* Sub cell: M3_M2_CDNS_765068464216                         *
* +++++++++++++++++++++++++++++++++++++++++++++++++++++++++ *
.subckt M3_M2_CDNS_765068464216 1
** N=1 EP=1 FDC=0
.ends M3_M2_CDNS_765068464216

* +++++++++++++++++++++++++++++++++++++++++++++++++++++++++ *
* Sub cell: M4_M3_CDNS_765068464217                         *
* +++++++++++++++++++++++++++++++++++++++++++++++++++++++++ *
.subckt M4_M3_CDNS_765068464217 1
** N=1 EP=1 FDC=0
.ends M4_M3_CDNS_765068464217

* +++++++++++++++++++++++++++++++++++++++++++++++++++++++++ *
* Sub cell: M5_M4_CDNS_765068464218                         *
* +++++++++++++++++++++++++++++++++++++++++++++++++++++++++ *
.subckt M5_M4_CDNS_765068464218 1
** N=1 EP=1 FDC=0
.ends M5_M4_CDNS_765068464218

* +++++++++++++++++++++++++++++++++++++++++++++++++++++++++ *
* Sub cell: M2_M1_CDNS_765068464219                         *
* +++++++++++++++++++++++++++++++++++++++++++++++++++++++++ *
.subckt M2_M1_CDNS_765068464219 1
** N=1 EP=1 FDC=0
.ends M2_M1_CDNS_765068464219

* +++++++++++++++++++++++++++++++++++++++++++++++++++++++++ *
* Sub cell: M4_M3_CDNS_7650684642110                        *
* +++++++++++++++++++++++++++++++++++++++++++++++++++++++++ *
.subckt M4_M3_CDNS_7650684642110 1
** N=1 EP=1 FDC=0
.ends M4_M3_CDNS_7650684642110

* +++++++++++++++++++++++++++++++++++++++++++++++++++++++++ *
* Sub cell: M3_M2_CDNS_7650684642111                        *
* +++++++++++++++++++++++++++++++++++++++++++++++++++++++++ *
.subckt M3_M2_CDNS_7650684642111 1
** N=1 EP=1 FDC=0
.ends M3_M2_CDNS_7650684642111

* +++++++++++++++++++++++++++++++++++++++++++++++++++++++++ *
* Sub cell: M5_M4_CDNS_7650684642113                        *
* +++++++++++++++++++++++++++++++++++++++++++++++++++++++++ *
.subckt M5_M4_CDNS_7650684642113 1
** N=1 EP=1 FDC=0
.ends M5_M4_CDNS_7650684642113

* +++++++++++++++++++++++++++++++++++++++++++++++++++++++++ *
* Sub cell: M6_M5_CDNS_7650684642114                        *
* +++++++++++++++++++++++++++++++++++++++++++++++++++++++++ *
.subckt M6_M5_CDNS_7650684642114 1
** N=1 EP=1 FDC=0
.ends M6_M5_CDNS_7650684642114

* +++++++++++++++++++++++++++++++++++++++++++++++++++++++++ *
* Sub cell: M7_M6_CDNS_7650684642115                        *
* +++++++++++++++++++++++++++++++++++++++++++++++++++++++++ *
.subckt M7_M6_CDNS_7650684642115 1
** N=1 EP=1 FDC=0
.ends M7_M6_CDNS_7650684642115

* +++++++++++++++++++++++++++++++++++++++++++++++++++++++++ *
* Sub cell: M8_M7_CDNS_7650684642116                        *
* +++++++++++++++++++++++++++++++++++++++++++++++++++++++++ *
.subckt M8_M7_CDNS_7650684642116 1
** N=1 EP=1 FDC=0
.ends M8_M7_CDNS_7650684642116

* +++++++++++++++++++++++++++++++++++++++++++++++++++++++++ *
* Sub cell: M9_M8_CDNS_7650684642117                        *
* +++++++++++++++++++++++++++++++++++++++++++++++++++++++++ *
.subckt M9_M8_CDNS_7650684642117 1
** N=1 EP=1 FDC=0
.ends M9_M8_CDNS_7650684642117

* +++++++++++++++++++++++++++++++++++++++++++++++++++++++++ *
* Sub cell: M10_M9_CDNS_7650684642118                       *
* +++++++++++++++++++++++++++++++++++++++++++++++++++++++++ *
.subckt M10_M9_CDNS_7650684642118 1
** N=1 EP=1 FDC=0
.ends M10_M9_CDNS_7650684642118

* +++++++++++++++++++++++++++++++++++++++++++++++++++++++++ *
* Sub cell: M11_M10_CDNS_7650684642119                      *
* +++++++++++++++++++++++++++++++++++++++++++++++++++++++++ *
.subckt M11_M10_CDNS_7650684642119 1
** N=1 EP=1 FDC=0
.ends M11_M10_CDNS_7650684642119

* +++++++++++++++++++++++++++++++++++++++++++++++++++++++++ *
* Sub cell: M1_NWELL_CDNS_7650684642120                     *
* +++++++++++++++++++++++++++++++++++++++++++++++++++++++++ *
.subckt M1_NWELL_CDNS_7650684642120 1
** N=1 EP=1 FDC=0
.ends M1_NWELL_CDNS_7650684642120

* +++++++++++++++++++++++++++++++++++++++++++++++++++++++++ *
* Sub cell: M2_M1_CDNS_7650684642121                        *
* +++++++++++++++++++++++++++++++++++++++++++++++++++++++++ *
.subckt M2_M1_CDNS_7650684642121 1
** N=1 EP=1 FDC=0
.ends M2_M1_CDNS_7650684642121

* +++++++++++++++++++++++++++++++++++++++++++++++++++++++++ *
* Sub cell: M1_PSUB_CDNS_7650684642122                      *
* +++++++++++++++++++++++++++++++++++++++++++++++++++++++++ *
.subckt M1_PSUB_CDNS_7650684642122 1
** N=1 EP=1 FDC=0
.ends M1_PSUB_CDNS_7650684642122

* +++++++++++++++++++++++++++++++++++++++++++++++++++++++++ *
* Sub cell: M1_PO_CDNS_7650684642123                        *
* +++++++++++++++++++++++++++++++++++++++++++++++++++++++++ *
.subckt M1_PO_CDNS_7650684642123 1
** N=1 EP=1 FDC=0
.ends M1_PO_CDNS_7650684642123

* +++++++++++++++++++++++++++++++++++++++++++++++++++++++++ *
* Sub cell: nmos1v_CDNS_765068464210                        *
* +++++++++++++++++++++++++++++++++++++++++++++++++++++++++ *
.subckt nmos1v_CDNS_765068464210 S_source_0 S_source_2 D_drain_1 4 5
** N=5 EP=5 FDC=2
M0 D_drain_1 4 S_source_0 5 g45n1svt L=4.5e-08 W=7.2e-07 AD=1.152e-13 AS=1.008e-13 PD=1.76e-06 PS=1.72e-06 fw=7.2e-07 sa=1.4e-07 sb=3.45e-07 sca=3.60561 scb=0.000231313 scc=1.03051e-07 $X=0 $Y=0 $dt=0
M1 S_source_2 4 D_drain_1 5 g45n1svt L=4.5e-08 W=7.2e-07 AD=1.008e-13 AS=1.152e-13 PD=1.72e-06 PS=1.76e-06 fw=7.2e-07 sa=3.45e-07 sb=1.4e-07 sca=3.60561 scb=0.000231313 scc=1.03051e-07 $X=410 $Y=0 $dt=0
.ends nmos1v_CDNS_765068464210

* +++++++++++++++++++++++++++++++++++++++++++++++++++++++++ *
* Sub cell: pmos1v_CDNS_765068464211                        *
* +++++++++++++++++++++++++++++++++++++++++++++++++++++++++ *
.subckt pmos1v_CDNS_765068464211 S_source_0 D_drain_1 3 S_source_2 5 B
*.DEVICECLIMB
** N=6 EP=6 FDC=0
.ends pmos1v_CDNS_765068464211

* +++++++++++++++++++++++++++++++++++++++++++++++++++++++++ *
* Sub cell: nmos1v_CDNS_765068464212                        *
* +++++++++++++++++++++++++++++++++++++++++++++++++++++++++ *
.subckt nmos1v_CDNS_765068464212 S_source_0 D_drain_1 3 S_source_2 5
** N=5 EP=5 FDC=2
M0 D_drain_1 3 S_source_0 5 g45n1svt L=4.5e-08 W=3.6e-07 AD=5.76e-14 AS=5.04e-14 PD=1.04e-06 PS=1e-06 fw=3.6e-07 sa=1.4e-07 sb=3.45e-07 sca=4.15332 scb=0.000375834 scc=2.03107e-07 $X=0 $Y=0 $dt=0
M1 S_source_2 3 D_drain_1 5 g45n1svt L=4.5e-08 W=3.6e-07 AD=5.04e-14 AS=5.76e-14 PD=1e-06 PS=1.04e-06 fw=3.6e-07 sa=3.45e-07 sb=1.4e-07 sca=4.15332 scb=0.000375834 scc=2.03107e-07 $X=410 $Y=0 $dt=0
.ends nmos1v_CDNS_765068464212

* +++++++++++++++++++++++++++++++++++++++++++++++++++++++++ *
* Sub cell: inv                                             *
* +++++++++++++++++++++++++++++++++++++++++++++++++++++++++ *
.subckt inv IN VDD OUT VSS
*.DEVICECLIMB
** N=4 EP=4 FDC=2
X0 VDD M1_NWELL_CDNS_7650684642120 $T=190 2570 0 0 $X=-230 $Y=2270
X1 VSS M1_PSUB_CDNS_7650684642122 $T=190 -2020 0 0 $X=-190 $Y=-2160
X2 IN M1_PO_CDNS_7650684642123 $T=-160 30 0 0 $X=-260 $Y=-330
X3 VDD OUT IN VDD VSS VDD pmos1v_CDNS_765068464211 $T=-60 630 0 0 $X=-480 $Y=430
X4 VSS OUT IN VSS VSS nmos1v_CDNS_765068464212 $T=-60 -1520 0 0 $X=-480 $Y=-1720
.ends inv

* +++++++++++++++++++++++++++++++++++++++++++++++++++++++++ *
* Sub cell: and2                                            *
* +++++++++++++++++++++++++++++++++++++++++++++++++++++++++ *
.subckt and2 A VDD B VSS OUT 6 7
*.DEVICECLIMB
** N=7 EP=7 FDC=9
X0 VDD M1_NWELL_CDNS_7650684642120 $T=-1350 2870 0 0 $X=-1770 $Y=2570
X1 6 M2_M1_CDNS_7650684642121 $T=-2410 -1220 0 0 $X=-2490 $Y=-1470
X2 7 M2_M1_CDNS_7650684642121 $T=-2000 1650 0 0 $X=-2080 $Y=1400
X3 6 M2_M1_CDNS_7650684642121 $T=-1590 -1220 0 0 $X=-1670 $Y=-1470
X4 6 M2_M1_CDNS_7650684642121 $T=-1110 -1220 0 0 $X=-1190 $Y=-1470
X5 7 M2_M1_CDNS_7650684642121 $T=-700 1650 0 0 $X=-780 $Y=1400
X6 6 M2_M1_CDNS_7650684642121 $T=-290 -1220 0 0 $X=-370 $Y=-1470
X7 VSS M1_PSUB_CDNS_7650684642122 $T=-700 -2440 0 0 $X=-1080 $Y=-2580
X8 A M1_PO_CDNS_7650684642123 $T=-2350 360 0 0 $X=-2450 $Y=0
X9 B M1_PO_CDNS_7650684642123 $T=-1050 60 0 0 $X=-1150 $Y=-300
X10 6 6 7 A VSS nmos1v_CDNS_765068464210 $T=-2250 -1940 0 0 $X=-2670 $Y=-2140
X11 6 6 VSS B VSS nmos1v_CDNS_765068464210 $T=-950 -1940 0 0 $X=-1370 $Y=-2140
X12 VDD 7 A VDD VSS VDD pmos1v_CDNS_765068464211 $T=-2250 930 0 0 $X=-2670 $Y=730
X13 VDD 7 B VDD VSS VDD pmos1v_CDNS_765068464211 $T=-950 930 0 0 $X=-1370 $Y=730
X14 7 VDD OUT VSS inv $T=410 300 0 0 $X=-70 $Y=-1860
M0 VDD B 7 VDD g45p1svt L=4.5e-08 W=7.2e-07 AD=1.008e-13 AS=1.152e-13 PD=1.72e-06 PS=1.76e-06 fw=7.2e-07 sa=3.45e-07 sb=1.4e-07 sca=25.8711 scb=0.0135953 scc=0.00231129 $X=-540 $Y=930 $dt=1
M1 OUT 7 VDD VDD g45p1svt L=4.5e-08 W=7.2e-07 AD=1.152e-13 AS=1.008e-13 PD=1.76e-06 PS=1.72e-06 fw=7.2e-07 sa=1.4e-07 sb=3.45e-07 sca=30.0436 scb=0.0194268 scc=0.00239616 $X=350 $Y=930 $dt=1
M2 VDD 7 OUT VDD g45p1svt L=4.5e-08 W=7.2e-07 AD=1.008e-13 AS=1.152e-13 PD=1.72e-06 PS=1.76e-06 fw=7.2e-07 sa=3.45e-07 sb=1.4e-07 sca=44.9648 scb=0.0375178 scc=0.00495812 $X=760 $Y=930 $dt=1
.ends and2

* +++++++++++++++++++++++++++++++++++++++++++++++++++++++++ *
* Sub cell: M2_M1_CDNS_7650684642124                        *
* +++++++++++++++++++++++++++++++++++++++++++++++++++++++++ *
.subckt M2_M1_CDNS_7650684642124 1
** N=1 EP=1 FDC=0
.ends M2_M1_CDNS_7650684642124

* +++++++++++++++++++++++++++++++++++++++++++++++++++++++++ *
* Sub cell: M2_M1_CDNS_7650684642125                        *
* +++++++++++++++++++++++++++++++++++++++++++++++++++++++++ *
.subckt M2_M1_CDNS_7650684642125 1
** N=1 EP=1 FDC=0
.ends M2_M1_CDNS_7650684642125

* +++++++++++++++++++++++++++++++++++++++++++++++++++++++++ *
* Sub cell: M1_PO_CDNS_7650684642128                        *
* +++++++++++++++++++++++++++++++++++++++++++++++++++++++++ *
.subckt M1_PO_CDNS_7650684642128 1
** N=1 EP=1 FDC=0
.ends M1_PO_CDNS_7650684642128

* +++++++++++++++++++++++++++++++++++++++++++++++++++++++++ *
* Sub cell: xor                                             *
* +++++++++++++++++++++++++++++++++++++++++++++++++++++++++ *
.subckt xor B VDD VSS B_bar OUT A
*.DEVICECLIMB
** N=6 EP=6 FDC=9
X0 OUT M2_M1_CDNS_7650684642121 $T=-660 -1560 0 0 $X=-740 $Y=-1810
X1 OUT M2_M1_CDNS_7650684642121 $T=-660 950 0 0 $X=-740 $Y=700
X2 OUT M2_M1_CDNS_7650684642121 $T=160 -1560 0 0 $X=80 $Y=-1810
X3 OUT M2_M1_CDNS_7650684642121 $T=160 950 0 0 $X=80 $Y=700
X4 OUT M2_M1_CDNS_7650684642121 $T=1050 -1560 0 0 $X=970 $Y=-1810
X5 OUT M2_M1_CDNS_7650684642121 $T=1050 950 0 0 $X=970 $Y=700
X6 OUT A B OUT VSS VDD pmos1v_CDNS_765068464211 $T=-500 230 0 0 $X=-920 $Y=30
X7 B OUT A B VSS VDD pmos1v_CDNS_765068464211 $T=800 230 0 0 $X=380 $Y=30
X8 OUT A B_bar OUT VSS nmos1v_CDNS_765068464212 $T=-500 -1920 0 0 $X=-920 $Y=-2120
X9 B_bar OUT A B_bar VSS nmos1v_CDNS_765068464212 $T=800 -1920 0 0 $X=380 $Y=-2120
X10 B VDD B_bar VSS inv $T=-1740 -400 0 0 $X=-2220 $Y=-2560
X11 A M2_M1_CDNS_7650684642124 $T=-30 -450 0 0 $X=-160 $Y=-580
X12 OUT M2_M1_CDNS_7650684642124 $T=1330 -190 0 0 $X=1200 $Y=-320
X13 A M2_M1_CDNS_7650684642125 $T=-300 -1260 0 0 $X=-430 $Y=-1390
X14 A M2_M1_CDNS_7650684642125 $T=-250 380 0 0 $X=-380 $Y=250
X15 B M1_PO_CDNS_7650684642128 $T=-450 10 0 0 $X=-550 $Y=-110
X16 B M1_PO_CDNS_7650684642128 $T=-450 1890 0 0 $X=-550 $Y=1770
X17 B_bar M1_PO_CDNS_7650684642128 $T=-40 -2140 0 0 $X=-140 $Y=-2260
X18 B M1_PO_CDNS_7650684642128 $T=-40 1890 0 0 $X=-140 $Y=1770
X19 A M1_PO_CDNS_7650684642128 $T=850 -980 0 0 $X=750 $Y=-1100
M0 OUT B A VDD g45p1svt L=4.5e-08 W=7.2e-07 AD=1.008e-13 AS=1.152e-13 PD=1.72e-06 PS=1.76e-06 fw=7.2e-07 sa=3.45e-07 sb=1.4e-07 sca=25.5135 scb=0.01349 scc=0.00231127 $X=-90 $Y=230 $dt=1
M1 OUT A B VDD g45p1svt L=4.5e-08 W=7.2e-07 AD=1.152e-13 AS=1.008e-13 PD=1.76e-06 PS=1.72e-06 fw=7.2e-07 sa=1.4e-07 sb=3.45e-07 sca=25.5135 scb=0.01349 scc=0.00231127 $X=800 $Y=230 $dt=1
M2 B A OUT VDD g45p1svt L=4.5e-08 W=7.2e-07 AD=1.008e-13 AS=1.152e-13 PD=1.72e-06 PS=1.76e-06 fw=7.2e-07 sa=3.45e-07 sb=1.4e-07 sca=25.5135 scb=0.01349 scc=0.00231127 $X=1210 $Y=230 $dt=1
.ends xor

* +++++++++++++++++++++++++++++++++++++++++++++++++++++++++ *
* Sub cell: half_adder                                      *
* +++++++++++++++++++++++++++++++++++++++++++++++++++++++++ *
.subckt half_adder B A VSS VDD S Co 7
** N=9 EP=7 FDC=24
X0 Co M2_M1_CDNS_765068464211 $T=9970 3310 0 0 $X=9890 $Y=3180
X1 S M2_M1_CDNS_765068464211 $T=10180 2730 0 0 $X=10100 $Y=2600
X2 B M3_M2_CDNS_7650684642111 $T=2760 3570 0 0 $X=2680 $Y=3440
X3 A M3_M2_CDNS_7650684642111 $T=4630 3110 0 0 $X=4550 $Y=2980
X4 Co M3_M2_CDNS_7650684642111 $T=9970 3310 0 0 $X=9890 $Y=3180
X5 S M3_M2_CDNS_7650684642111 $T=10180 2730 0 0 $X=10100 $Y=2600
X6 A VDD B VSS Co 9 8 and2 $T=9010 2860 0 0 $X=6340 $Y=280
X7 B M2_M1_CDNS_7650684642124 $T=2760 2580 0 0 $X=2630 $Y=2450
X8 B M2_M1_CDNS_7650684642124 $T=7960 2810 0 0 $X=7830 $Y=2680
X9 S M2_M1_CDNS_7650684642125 $T=6360 3430 0 0 $X=6230 $Y=3300
X10 B VDD VSS 7 S A xor $T=4660 3560 0 0 $X=2440 $Y=1000
M0 7 B VDD VDD g45p1svt L=4.5e-08 W=7.2e-07 AD=1.152e-13 AS=1.008e-13 PD=1.76e-06 PS=1.72e-06 fw=7.2e-07 sa=1.4e-07 sb=3.45e-07 sca=44.9648 scb=0.0375178 scc=0.00495812 $X=2860 $Y=3790 $dt=1
M1 VDD B 7 VDD g45p1svt L=4.5e-08 W=7.2e-07 AD=1.008e-13 AS=1.152e-13 PD=1.72e-06 PS=1.76e-06 fw=7.2e-07 sa=3.45e-07 sb=1.4e-07 sca=30.0436 scb=0.0194268 scc=0.00239616 $X=3270 $Y=3790 $dt=1
M2 A B S VDD g45p1svt L=4.5e-08 W=7.2e-07 AD=1.152e-13 AS=1.008e-13 PD=1.76e-06 PS=1.72e-06 fw=7.2e-07 sa=1.4e-07 sb=3.45e-07 sca=25.8711 scb=0.0135953 scc=0.00231129 $X=4160 $Y=3790 $dt=1
M3 8 A VDD VDD g45p1svt L=4.5e-08 W=7.2e-07 AD=1.152e-13 AS=1.008e-13 PD=1.76e-06 PS=1.72e-06 fw=7.2e-07 sa=1.4e-07 sb=3.45e-07 sca=25.5135 scb=0.01349 scc=0.00231127 $X=6760 $Y=3790 $dt=1
M4 VDD A 8 VDD g45p1svt L=4.5e-08 W=7.2e-07 AD=1.008e-13 AS=1.152e-13 PD=1.72e-06 PS=1.76e-06 fw=7.2e-07 sa=3.45e-07 sb=1.4e-07 sca=25.5135 scb=0.01349 scc=0.00231127 $X=7170 $Y=3790 $dt=1
M5 8 B VDD VDD g45p1svt L=4.5e-08 W=7.2e-07 AD=1.152e-13 AS=1.008e-13 PD=1.76e-06 PS=1.72e-06 fw=7.2e-07 sa=1.4e-07 sb=3.45e-07 sca=25.5135 scb=0.01349 scc=0.00231127 $X=8060 $Y=3790 $dt=1
.ends half_adder

* +++++++++++++++++++++++++++++++++++++++++++++++++++++++++ *
* Sub cell: M3_M2_CDNS_7650684642131                        *
* +++++++++++++++++++++++++++++++++++++++++++++++++++++++++ *
.subckt M3_M2_CDNS_7650684642131 1
** N=1 EP=1 FDC=0
.ends M3_M2_CDNS_7650684642131

* +++++++++++++++++++++++++++++++++++++++++++++++++++++++++ *
* Sub cell: nmos1v_CDNS_765068464213                        *
* +++++++++++++++++++++++++++++++++++++++++++++++++++++++++ *
.subckt nmos1v_CDNS_765068464213 S_source_0 D_drain_1 3 S_source_2 D_drain_3 6 7 S_source_4 9
** N=9 EP=9 FDC=4
M0 D_drain_1 3 S_source_0 S_source_2 g45n1svt L=4.5e-08 W=3.6e-07 AD=5.76e-14 AS=5.04e-14 PD=1.04e-06 PS=1e-06 fw=3.6e-07 sa=1.4e-07 sb=7.55e-07 sca=4.15332 scb=0.000375834 scc=2.03107e-07 $X=0 $Y=0 $dt=0
M1 S_source_2 6 D_drain_1 S_source_2 g45n1svt L=4.5e-08 W=3.6e-07 AD=5.76e-14 AS=5.76e-14 PD=1.04e-06 PS=1.04e-06 fw=3.6e-07 sa=3.45e-07 sb=5.5e-07 sca=4.15332 scb=0.000375834 scc=2.03107e-07 $X=410 $Y=0 $dt=0
M2 D_drain_3 7 S_source_2 S_source_2 g45n1svt L=4.5e-08 W=3.6e-07 AD=5.76e-14 AS=5.76e-14 PD=1.04e-06 PS=1.04e-06 fw=3.6e-07 sa=5.5e-07 sb=3.45e-07 sca=4.15332 scb=0.000375834 scc=2.03107e-07 $X=820 $Y=0 $dt=0
M3 S_source_4 9 D_drain_3 S_source_2 g45n1svt L=4.5e-08 W=3.6e-07 AD=5.04e-14 AS=5.76e-14 PD=1e-06 PS=1.04e-06 fw=3.6e-07 sa=7.55e-07 sb=1.4e-07 sca=4.15332 scb=0.000375834 scc=2.03107e-07 $X=1230 $Y=0 $dt=0
.ends nmos1v_CDNS_765068464213

* +++++++++++++++++++++++++++++++++++++++++++++++++++++++++ *
* Sub cell: pmos1v_CDNS_765068464214                        *
* +++++++++++++++++++++++++++++++++++++++++++++++++++++++++ *
.subckt pmos1v_CDNS_765068464214 S_source_0 D_drain_1 S_source_2 4 5 D_drain_3 S_source_4 8 9 10
+ B
** N=11 EP=11 FDC=4
M0 D_drain_1 4 S_source_0 B g45p1svt L=4.5e-08 W=7.2e-07 AD=1.152e-13 AS=1.008e-13 PD=1.76e-06 PS=1.72e-06 fw=7.2e-07 sa=1.4e-07 sb=7.55e-07 sca=25.5135 scb=0.01349 scc=0.00231127 $X=0 $Y=0 $dt=1
M1 S_source_2 5 D_drain_1 B g45p1svt L=4.5e-08 W=7.2e-07 AD=1.152e-13 AS=1.152e-13 PD=1.76e-06 PS=1.76e-06 fw=7.2e-07 sa=3.45e-07 sb=5.5e-07 sca=25.5135 scb=0.01349 scc=0.00231127 $X=410 $Y=0 $dt=1
M2 D_drain_3 8 S_source_2 B g45p1svt L=4.5e-08 W=7.2e-07 AD=1.152e-13 AS=1.152e-13 PD=1.76e-06 PS=1.76e-06 fw=7.2e-07 sa=5.5e-07 sb=3.45e-07 sca=25.5135 scb=0.01349 scc=0.00231127 $X=820 $Y=0 $dt=1
M3 S_source_4 9 D_drain_3 B g45p1svt L=4.5e-08 W=7.2e-07 AD=1.008e-13 AS=1.152e-13 PD=1.72e-06 PS=1.76e-06 fw=7.2e-07 sa=7.55e-07 sb=1.4e-07 sca=25.8711 scb=0.0135953 scc=0.00231129 $X=1230 $Y=0 $dt=1
.ends pmos1v_CDNS_765068464214

* +++++++++++++++++++++++++++++++++++++++++++++++++++++++++ *
* Sub cell: fa_co_network                                   *
* +++++++++++++++++++++++++++++++++++++++++++++++++++++++++ *
.subckt fa_co_network OUT P Ci VDD VSS P_bar A 8 9 10
+ 11
** N=11 EP=11 FDC=8
X0 OUT M2_M1_CDNS_765068464211 $T=-830 -970 0 0 $X=-910 $Y=-1100
X1 P M2_M1_CDNS_765068464211 $T=-220 -60 0 0 $X=-300 $Y=-190
X2 P M2_M1_CDNS_765068464211 $T=200 730 0 0 $X=120 $Y=600
X3 OUT M2_M1_CDNS_765068464211 $T=810 -970 0 0 $X=730 $Y=-1100
X4 VDD M1_NWELL_CDNS_7650684642120 $T=-10 2990 0 0 $X=-430 $Y=2690
X5 VSS M1_PSUB_CDNS_7650684642122 $T=0 -1600 0 0 $X=-380 $Y=-1740
X6 Ci M1_PO_CDNS_7650684642123 $T=-590 550 0 0 $X=-690 $Y=190
X7 A M1_PO_CDNS_7650684642123 $T=570 550 0 0 $X=470 $Y=190
X8 P M1_PO_CDNS_7650684642128 $T=-220 -60 0 0 $X=-320 $Y=-180
X9 P_bar M1_PO_CDNS_7650684642128 $T=-210 730 0 0 $X=-310 $Y=610
X10 P_bar M1_PO_CDNS_7650684642128 $T=190 -60 0 0 $X=90 $Y=-180
X11 P M1_PO_CDNS_7650684642128 $T=200 730 0 0 $X=100 $Y=610
X12 OUT 8 Ci VSS 9 P P_bar OUT A nmos1v_CDNS_765068464213 $T=-670 -1100 0 0 $X=-1090 $Y=-1300
X13 OUT 10 VDD Ci P_bar 11 OUT P A VSS
+ VDD pmos1v_CDNS_765068464214 $T=-670 1050 0 0 $X=-1090 $Y=850
.ends fa_co_network

* +++++++++++++++++++++++++++++++++++++++++++++++++++++++++ *
* Sub cell: full_adder                                      *
* +++++++++++++++++++++++++++++++++++++++++++++++++++++++++ *
.subckt full_adder B A Ci VDD VSS S Co 8 9 10
+ 11
** N=15 EP=11 FDC=36
X0 A M2_M1_CDNS_765068464211 $T=5250 3070 0 0 $X=5170 $Y=2940
X1 8 M2_M1_CDNS_765068464211 $T=9530 2380 0 0 $X=9450 $Y=2250
X2 9 M2_M1_CDNS_765068464211 $T=9530 5090 0 0 $X=9450 $Y=4960
X3 VDD M2_M1_CDNS_765068464211 $T=10820 5970 0 0 $X=10740 $Y=5840
X4 8 M2_M1_CDNS_765068464211 $T=11040 2940 0 0 $X=10960 $Y=2810
X5 A M2_M1_CDNS_765068464211 $T=11390 3320 0 0 $X=11310 $Y=3190
X6 Co M2_M1_CDNS_765068464211 $T=12920 3510 0 0 $X=12840 $Y=3380
X7 A M4_M3_CDNS_7650684642110 $T=6980 3080 0 0 $X=6900 $Y=2950
X8 A M4_M3_CDNS_7650684642110 $T=10140 2970 0 0 $X=10060 $Y=2840
X9 B M3_M2_CDNS_7650684642111 $T=2270 3860 0 0 $X=2190 $Y=3730
X10 A M3_M2_CDNS_7650684642111 $T=5790 3080 0 0 $X=5710 $Y=2950
X11 S M3_M2_CDNS_7650684642111 $T=9120 4760 0 0 $X=9040 $Y=4630
X12 A M3_M2_CDNS_7650684642111 $T=11410 2940 0 0 $X=11330 $Y=2810
X13 Co M3_M2_CDNS_7650684642111 $T=12920 3510 0 0 $X=12840 $Y=3380
X14 10 VDD Co VSS inv $T=12350 3410 0 0 $X=11870 $Y=1250
X15 VDD M2_M1_CDNS_7650684642124 $T=6470 5920 0 0 $X=6340 $Y=5790
X16 Ci M2_M1_CDNS_7650684642124 $T=7620 3360 0 0 $X=7490 $Y=3230
X17 Ci M2_M1_CDNS_7650684642124 $T=10320 3640 0 0 $X=10190 $Y=3510
X18 VDD M2_M1_CDNS_7650684642125 $T=3420 5920 0 0 $X=3290 $Y=5790
X19 B VDD VSS 11 9 A xor $T=4170 3810 0 0 $X=1950 $Y=1250
X20 9 VDD VSS 8 S Ci xor $T=8070 3810 0 0 $X=5850 $Y=1250
X21 Ci M3_M2_CDNS_7650684642131 $T=7300 3360 0 0 $X=7170 $Y=3230
X22 Ci M3_M2_CDNS_7650684642131 $T=10110 3640 0 0 $X=9980 $Y=3510
X23 10 9 Ci VDD VSS 8 A 12 13 14
+ 15 fa_co_network $T=10840 2990 0 0 $X=9750 $Y=1250
M0 11 B VDD VDD g45p1svt L=4.5e-08 W=7.2e-07 AD=1.152e-13 AS=1.008e-13 PD=1.76e-06 PS=1.72e-06 fw=7.2e-07 sa=1.4e-07 sb=3.45e-07 sca=44.9648 scb=0.0375178 scc=0.00495812 $X=2370 $Y=4040 $dt=1
M1 VDD B 11 VDD g45p1svt L=4.5e-08 W=7.2e-07 AD=1.008e-13 AS=1.152e-13 PD=1.72e-06 PS=1.76e-06 fw=7.2e-07 sa=3.45e-07 sb=1.4e-07 sca=30.0436 scb=0.0194268 scc=0.00239616 $X=2780 $Y=4040 $dt=1
M2 A B 9 VDD g45p1svt L=4.5e-08 W=7.2e-07 AD=1.152e-13 AS=1.008e-13 PD=1.76e-06 PS=1.72e-06 fw=7.2e-07 sa=1.4e-07 sb=3.45e-07 sca=25.8711 scb=0.0135953 scc=0.00231129 $X=3670 $Y=4040 $dt=1
M3 8 9 VDD VDD g45p1svt L=4.5e-08 W=7.2e-07 AD=1.152e-13 AS=1.008e-13 PD=1.76e-06 PS=1.72e-06 fw=7.2e-07 sa=1.4e-07 sb=3.45e-07 sca=25.5135 scb=0.01349 scc=0.00231127 $X=6270 $Y=4040 $dt=1
M4 VDD 9 8 VDD g45p1svt L=4.5e-08 W=7.2e-07 AD=1.008e-13 AS=1.152e-13 PD=1.72e-06 PS=1.76e-06 fw=7.2e-07 sa=3.45e-07 sb=1.4e-07 sca=25.5135 scb=0.01349 scc=0.00231127 $X=6680 $Y=4040 $dt=1
M5 Ci 9 S VDD g45p1svt L=4.5e-08 W=7.2e-07 AD=1.152e-13 AS=1.008e-13 PD=1.76e-06 PS=1.72e-06 fw=7.2e-07 sa=1.4e-07 sb=3.45e-07 sca=25.5135 scb=0.01349 scc=0.00231127 $X=7570 $Y=4040 $dt=1
M6 Co 10 VDD VDD g45p1svt L=4.5e-08 W=7.2e-07 AD=1.152e-13 AS=1.008e-13 PD=1.76e-06 PS=1.72e-06 fw=7.2e-07 sa=1.4e-07 sb=3.45e-07 sca=30.0436 scb=0.0194268 scc=0.00239616 $X=12290 $Y=4040 $dt=1
M7 VDD 10 Co VDD g45p1svt L=4.5e-08 W=7.2e-07 AD=1.008e-13 AS=1.152e-13 PD=1.72e-06 PS=1.76e-06 fw=7.2e-07 sa=3.45e-07 sb=1.4e-07 sca=44.9648 scb=0.0375178 scc=0.00495812 $X=12700 $Y=4040 $dt=1
.ends full_adder

* +++++++++++++++++++++++++++++++++++++++++++++++++++++++++ *
* Sub cell: mult_auto                                       *
* +++++++++++++++++++++++++++++++++++++++++++++++++++++++++ *
.subckt mult_auto A0 A1 A2 A3 B0 B1 B2 B3 P0 P1
+ P2 P3 P4 P5 P6 P7 VDD VSS
** N=143 EP=18 FDC=576
X0 A3 M4_M3_CDNS_765068464210 $T=530 48380 0 0 $X=170 $Y=47890
X1 A2 M4_M3_CDNS_765068464210 $T=630 57160 0 0 $X=270 $Y=56670
X2 3 M2_M1_CDNS_765068464211 $T=6850 68930 0 0 $X=6770 $Y=68800
X3 P0 M2_M1_CDNS_765068464211 $T=6860 78720 0 0 $X=6780 $Y=78590
X4 5 M2_M1_CDNS_765068464211 $T=7150 48200 0 0 $X=7070 $Y=48070
X5 6 M2_M1_CDNS_765068464211 $T=7150 57670 0 0 $X=7070 $Y=57540
X6 7 M2_M1_CDNS_765068464211 $T=15370 42570 0 0 $X=15290 $Y=42440
X7 8 M2_M1_CDNS_765068464211 $T=15470 62060 0 0 $X=15390 $Y=61930
X8 9 M2_M1_CDNS_765068464211 $T=15470 71890 0 0 $X=15390 $Y=71760
X9 10 M2_M1_CDNS_765068464211 $T=15480 52820 0 0 $X=15400 $Y=52690
X10 11 M2_M1_CDNS_765068464211 $T=36990 34960 0 0 $X=36910 $Y=34830
X11 12 M2_M1_CDNS_765068464211 $T=37850 43590 0 0 $X=37770 $Y=43460
X12 13 M2_M1_CDNS_765068464211 $T=39090 51720 0 0 $X=39010 $Y=51590
X13 14 M2_M1_CDNS_765068464211 $T=40940 59910 0 0 $X=40860 $Y=59780
X14 15 M2_M1_CDNS_765068464211 $T=63420 25360 0 0 $X=63340 $Y=25230
X15 16 M2_M1_CDNS_765068464211 $T=63680 34640 0 0 $X=63600 $Y=34510
X16 17 M2_M1_CDNS_765068464211 $T=64220 42710 0 0 $X=64140 $Y=42580
X17 18 M2_M1_CDNS_765068464211 $T=65650 50790 0 0 $X=65570 $Y=50660
X18 A1 M3_M2_CDNS_765068464212 $T=3540 68870 0 0 $X=3460 $Y=68460
X19 A0 M3_M2_CDNS_765068464212 $T=3540 78670 0 0 $X=3460 $Y=78260
X20 A3 M3_M2_CDNS_765068464212 $T=3840 48140 0 0 $X=3760 $Y=47730
X21 A2 M3_M2_CDNS_765068464212 $T=3840 57600 0 0 $X=3760 $Y=57190
X22 B0 M3_M2_CDNS_765068464212 $T=4840 68580 0 0 $X=4760 $Y=68170
X23 B0 M3_M2_CDNS_765068464212 $T=4840 78370 0 0 $X=4760 $Y=77960
X24 B0 M3_M2_CDNS_765068464212 $T=5140 47840 0 0 $X=5060 $Y=47430
X25 B0 M3_M2_CDNS_765068464212 $T=5140 57310 0 0 $X=5060 $Y=56900
X26 A3 M3_M2_CDNS_765068464212 $T=12060 42520 0 0 $X=11980 $Y=42110
X27 A2 M3_M2_CDNS_765068464212 $T=12160 52760 0 0 $X=12080 $Y=52350
X28 A1 M3_M2_CDNS_765068464212 $T=12160 62010 0 0 $X=12080 $Y=61600
X29 A0 M3_M2_CDNS_765068464212 $T=12160 71820 0 0 $X=12080 $Y=71410
X30 B1 M3_M2_CDNS_765068464212 $T=13360 42210 0 0 $X=13280 $Y=41800
X31 B1 M3_M2_CDNS_765068464212 $T=13460 52460 0 0 $X=13380 $Y=52050
X32 B1 M3_M2_CDNS_765068464212 $T=13460 61710 0 0 $X=13380 $Y=61300
X33 B1 M3_M2_CDNS_765068464212 $T=13460 71540 0 0 $X=13380 $Y=71130
X34 A3 M3_M2_CDNS_765068464212 $T=33680 34900 0 0 $X=33600 $Y=34490
X35 A2 M3_M2_CDNS_765068464212 $T=34530 43540 0 0 $X=34450 $Y=43130
X36 B2 M3_M2_CDNS_765068464212 $T=34980 34600 0 0 $X=34900 $Y=34190
X37 A1 M3_M2_CDNS_765068464212 $T=35730 51660 0 0 $X=35650 $Y=51250
X38 B2 M3_M2_CDNS_765068464212 $T=35830 43240 0 0 $X=35750 $Y=42830
X39 B2 M3_M2_CDNS_765068464212 $T=37030 51360 0 0 $X=36950 $Y=50950
X40 A0 M3_M2_CDNS_765068464212 $T=37620 59850 0 0 $X=37540 $Y=59440
X41 B2 M3_M2_CDNS_765068464212 $T=38920 59550 0 0 $X=38840 $Y=59140
X42 A3 M3_M2_CDNS_765068464212 $T=60120 25320 0 0 $X=60040 $Y=24910
X43 A2 M3_M2_CDNS_765068464212 $T=60360 34570 0 0 $X=60280 $Y=34160
X44 A1 M3_M2_CDNS_765068464212 $T=60910 42670 0 0 $X=60830 $Y=42260
X45 B3 M3_M2_CDNS_765068464212 $T=61420 25010 0 0 $X=61340 $Y=24600
X46 B3 M3_M2_CDNS_765068464212 $T=61660 34270 0 0 $X=61580 $Y=33860
X47 B3 M3_M2_CDNS_765068464212 $T=62210 42370 0 0 $X=62130 $Y=41960
X48 A0 M3_M2_CDNS_765068464212 $T=62340 50730 0 0 $X=62260 $Y=50320
X49 B3 M3_M2_CDNS_765068464212 $T=63640 50430 0 0 $X=63560 $Y=50020
X50 A1 M2_M1_CDNS_765068464213 $T=3540 68870 0 0 $X=3460 $Y=68460
X51 A0 M2_M1_CDNS_765068464213 $T=3540 78670 0 0 $X=3460 $Y=78260
X52 A3 M2_M1_CDNS_765068464213 $T=3840 48140 0 0 $X=3760 $Y=47730
X53 A2 M2_M1_CDNS_765068464213 $T=3840 57600 0 0 $X=3760 $Y=57190
X54 B0 M2_M1_CDNS_765068464213 $T=4840 68580 0 0 $X=4760 $Y=68170
X55 B0 M2_M1_CDNS_765068464213 $T=4840 78370 0 0 $X=4760 $Y=77960
X56 B0 M2_M1_CDNS_765068464213 $T=5140 47840 0 0 $X=5060 $Y=47430
X57 B0 M2_M1_CDNS_765068464213 $T=5140 57310 0 0 $X=5060 $Y=56900
X58 A3 M2_M1_CDNS_765068464213 $T=12060 42520 0 0 $X=11980 $Y=42110
X59 A2 M2_M1_CDNS_765068464213 $T=12160 52760 0 0 $X=12080 $Y=52350
X60 A1 M2_M1_CDNS_765068464213 $T=12160 62010 0 0 $X=12080 $Y=61600
X61 A0 M2_M1_CDNS_765068464213 $T=12160 71820 0 0 $X=12080 $Y=71410
X62 B1 M2_M1_CDNS_765068464213 $T=13360 42210 0 0 $X=13280 $Y=41800
X63 B1 M2_M1_CDNS_765068464213 $T=13460 52460 0 0 $X=13380 $Y=52050
X64 B1 M2_M1_CDNS_765068464213 $T=13460 61710 0 0 $X=13380 $Y=61300
X65 B1 M2_M1_CDNS_765068464213 $T=13460 71540 0 0 $X=13380 $Y=71130
X66 A3 M2_M1_CDNS_765068464213 $T=33680 34900 0 0 $X=33600 $Y=34490
X67 A2 M2_M1_CDNS_765068464213 $T=34530 43540 0 0 $X=34450 $Y=43130
X68 B2 M2_M1_CDNS_765068464213 $T=34980 34600 0 0 $X=34900 $Y=34190
X69 A1 M2_M1_CDNS_765068464213 $T=35730 51660 0 0 $X=35650 $Y=51250
X70 B2 M2_M1_CDNS_765068464213 $T=35830 43240 0 0 $X=35750 $Y=42830
X71 B2 M2_M1_CDNS_765068464213 $T=37030 51360 0 0 $X=36950 $Y=50950
X72 A0 M2_M1_CDNS_765068464213 $T=37620 59850 0 0 $X=37540 $Y=59440
X73 B2 M2_M1_CDNS_765068464213 $T=38920 59550 0 0 $X=38840 $Y=59140
X74 A3 M2_M1_CDNS_765068464213 $T=60120 25320 0 0 $X=60040 $Y=24910
X75 A2 M2_M1_CDNS_765068464213 $T=60360 34570 0 0 $X=60280 $Y=34160
X76 A1 M2_M1_CDNS_765068464213 $T=60910 42670 0 0 $X=60830 $Y=42260
X77 B3 M2_M1_CDNS_765068464213 $T=61420 25010 0 0 $X=61340 $Y=24600
X78 B3 M2_M1_CDNS_765068464213 $T=61660 34270 0 0 $X=61580 $Y=33860
X79 B3 M2_M1_CDNS_765068464213 $T=62210 42370 0 0 $X=62130 $Y=41960
X80 A0 M2_M1_CDNS_765068464213 $T=62340 50730 0 0 $X=62260 $Y=50320
X81 B3 M2_M1_CDNS_765068464213 $T=63640 50430 0 0 $X=63560 $Y=50020
X82 A1 M4_M3_CDNS_765068464214 $T=550 69610 0 0 $X=110 $Y=69200
X83 A0 M4_M3_CDNS_765068464214 $T=740 78860 0 0 $X=300 $Y=78450
X84 VSS M4_M3_CDNS_765068464215 $T=8040 45040 0 0 $X=7680 $Y=44910
X85 VSS M4_M3_CDNS_765068464215 $T=8040 54400 0 0 $X=7680 $Y=54270
X86 VSS M4_M3_CDNS_765068464215 $T=8040 65960 0 0 $X=7680 $Y=65830
X87 VSS M4_M3_CDNS_765068464215 $T=8040 75820 0 0 $X=7680 $Y=75690
X88 VDD M4_M3_CDNS_765068464215 $T=9700 49570 0 0 $X=9340 $Y=49440
X89 VDD M4_M3_CDNS_765068464215 $T=9700 56020 0 0 $X=9340 $Y=55890
X90 VDD M4_M3_CDNS_765068464215 $T=9700 70720 0 0 $X=9340 $Y=70590
X91 VDD M4_M3_CDNS_765068464215 $T=10210 80980 0 0 $X=9850 $Y=80850
X92 VSS M4_M3_CDNS_765068464215 $T=15410 39170 0 0 $X=15050 $Y=39040
X93 VSS M4_M3_CDNS_765068464215 $T=15410 49510 0 0 $X=15050 $Y=49380
X94 VSS M4_M3_CDNS_765068464215 $T=16420 59350 0 0 $X=16060 $Y=59220